dss/export/capas-pablo/compl-pvsy-linegeom-loadsh-csv-gen-cap-stwcontrol-curvasdecarga-normamps-arreglos-homogeneos/Line.dss
New Line.conexion_et_bus_1558 bus1=buset.1.2.3 bus2=1558.1.2.3 length=20.83 Geometry=geometria_s120 units=m phases=3
New Line.conexion_et_bus_1583 bus1=buset.1.2.3 bus2=1583.1.2.3 length=25.05 Geometry=geometria_s120 units=m phases=3
New Line.conexion_et_bus_192 bus1=buset.1.2.3 bus2=192.1.2.3 length=25.26 Geometry=geometria_s120 units=m phases=3
New Line.conexion_et_bus_234 bus1=buset.1.2.3 bus2=234.1.2.3 length=26.45 Geometry=geometria_s120 units=m phases=3
New Line.conexion_et_bus_1557 bus1=buset.1.2.3 bus2=1557.1.2.3 length=45.23 Geometry=geometria_s120 units=m phases=3
New Line.idlinea1_idtramos_1 bus1=1.1.2.3 bus2=2.1.2.3 length=517.36 Geometry=geometria_s70 units=m phases=3
New Line.idlinea2_idtramos_2 bus1=2.1.2.3 bus2=3.1.2.3 length=307.33 Geometry=geometria_s70 units=m phases=3
New Line.idlinea3_idtramos_3 bus1=4.1.2.3 bus2=5.1.2.3 length=43.51 Geometry=geometria_s35 units=m phases=3
New Line.idlinea4_idtramos_4 bus1=6.1.2.3 bus2=7.1.2.3 length=9.73 Geometry=geometria_s35 units=m phases=3
New Line.idlinea5_idtramos_5 bus1=8.1.2.3 bus2=9.1.2.3 length=64.12 Geometry=geometria_s35 units=m phases=3
New Line.idlinea6_idtramos_6 bus1=10.1.2.3 bus2=11.1.2.3 length=31.76 Geometry=geometria_s35 units=m phases=3
New Line.idlinea7_idtramos_7 bus1=3.1.2.3 bus2=12.1.2.3 length=621.3 Geometry=geometria_s70 units=m phases=3
New Line.idlinea8_idtramos_8 bus1=13.1.2.3 bus2=14.1.2.3 length=47.36 Geometry=geometria_s50 units=m phases=3
New Line.idlinea16_idtramos_9 bus1=16.1.2.3 bus2=15.1.2.3 length=244.21 Geometry=geometria_s70 units=m phases=3
New Line.idlinea17_idtramos_10 bus1=16.1.2.3 bus2=17.1.2.3 length=20.71 Geometry=geometria_s70 units=m phases=3
New Line.idlinea18_idtramos_11 bus1=18.1.2.3 bus2=19.1.2.3 length=28.91 Geometry=geometria_s70 units=m phases=3
New Line.idlinea28_idtramos_12 bus1=20.1.2.3 bus2=21.1.2.3 length=41.74 Geometry=geometria_s35 units=m phases=3
New Line.idlinea35_idtramos_13 bus1=22.1.2.3 bus2=23.1.2.3 length=25.32 Geometry=geometria_s35 units=m phases=3
New Line.idlinea39_idtramos_14 bus1=26.1.2.3 bus2=24.1.2.3 length=14.57 Geometry=geometria_s50 units=m phases=3
New Line.idlinea39_idtramos_15 bus1=24.1.2.3 bus2=25.1.2.3 length=14.52 Geometry=geometria_s50 units=m phases=3
New Line.idlinea41_idtramos_16 bus1=26.1.2.3 bus2=27.1.2.3 length=484.81 Geometry=geometria_s50 units=m phases=3
New Line.idlinea42_idtramos_17 bus1=28.1.2.3 bus2=29.1.2.3 length=21.83 Geometry=geometria_s35 units=m phases=3
New Line.idlinea54_idtramos_18 bus1=30.1.2.3 bus2=31.1.2.3 length=17.45 Geometry=geometria_s70 units=m phases=3
New Line.idlinea55_idtramos_19 bus1=47.1.2.3 bus2=32.1.2.3 length=113.01 Geometry=geometria_s50 units=m phases=3
New Line.idlinea38_idtramos_20 bus1=33.1.2.3 bus2=34.1.2.3 length=1007.5 Geometry=geometria_s50 units=m phases=3
New Line.idlinea38_idtramos_21 bus1=34.1.2.3 bus2=35.1.2.3 length=36.42 Geometry=geometria_s50 units=m phases=3
New Line.idlinea38_idtramos_22 bus1=35.1.2.3 bus2=36.1.2.3 length=74.04 Geometry=geometria_s50 units=m phases=3
New Line.idlinea38_idtramos_23 bus1=36.1.2.3 bus2=37.1.2.3 length=32.11 Geometry=geometria_s50 units=m phases=3
New Line.idlinea38_idtramos_24 bus1=37.1.2.3 bus2=38.1.2.3 length=13.87 Geometry=geometria_s50 units=m phases=3
New Line.idlinea38_idtramos_25 bus1=38.1.2.3 bus2=39.1.2.3 length=12.11 Geometry=geometria_s50 units=m phases=3
New Line.idlinea38_idtramos_26 bus1=39.1.2.3 bus2=40.1.2.3 length=152.08 Geometry=geometria_s50 units=m phases=3
New Line.idlinea40_idtramos_27 bus1=41.1.2.3 bus2=42.1.2.3 length=98.15 Geometry=geometria_s70 units=m phases=3
New Line.idlinea56_idtramos_28 bus1=43.1.2.3 bus2=44.1.2.3 length=394.73 Geometry=geometria_s50 units=m phases=3
New Line.idlinea61_idtramos_29 bus1=45.1.2.3 bus2=46.1.2.3 length=517.79 Geometry=geometria_s35 units=m phases=3
New Line.idlinea62_idtramos_30 bus1=47.1.2.3 bus2=48.1.2.3 length=60.19 Geometry=geometria_s50 units=m phases=3
New Line.idlinea9_idtramos_31 bus1=49.1.2.3 bus2=50.1.2.3 length=340.33 Geometry=geometria_s50 units=m phases=3
New Line.idlinea10_idtramos_32 bus1=51.1.2.3 bus2=52.1.2.3 length=55.44 Geometry=geometria_s35 units=m phases=3
New Line.idlinea10_idtramos_33 bus1=52.1.2.3 bus2=53.1.2.3 length=86.57 Geometry=geometria_s35 units=m phases=3
New Line.idlinea10_idtramos_34 bus1=53.1.2.3 bus2=54.1.2.3 length=366.88 Geometry=geometria_s35 units=m phases=3
New Line.idlinea10_idtramos_35 bus1=54.1.2.3 bus2=55.1.2.3 length=240.07 Geometry=geometria_s35 units=m phases=3
New Line.idlinea10_idtramos_36 bus1=55.1.2.3 bus2=56.1.2.3 length=47.77 Geometry=geometria_s35 units=m phases=3
New Line.idlinea10_idtramos_37 bus1=56.1.2.3 bus2=57.1.2.3 length=43.53 Geometry=geometria_s35 units=m phases=3
New Line.idlinea10_idtramos_38 bus1=57.1.2.3 bus2=58.1.2.3 length=26.95 Geometry=geometria_s35 units=m phases=3
New Line.idlinea11_idtramos_39 bus1=59.1.2.3 bus2=60.1.2.3 length=528.27 Geometry=geometria_s35 units=m phases=3
New Line.idlinea12_idtramos_40 bus1=61.1.2.3 bus2=62.1.2.3 length=53.4 Geometry=geometria_s70 units=m phases=3
New Line.idlinea13_idtramos_41 bus1=63.1.2.3 bus2=64.1.2.3 length=134.02 Geometry=geometria_s70 units=m phases=3
New Line.idlinea14_idtramos_42 bus1=65.1.2.3 bus2=66.1.2.3 length=650.11 Geometry=geometria_s35 units=m phases=3
New Line.idlinea15_idtramos_43 bus1=67.1.2.3 bus2=68.1.2.3 length=51.14 Geometry=geometria_s35 units=m phases=3
New Line.idlinea19_idtramos_44 bus1=69.1.2.3 bus2=70.1.2.3 length=7.96 Geometry=geometria_s35 units=m phases=3
New Line.idlinea43_idtramos_45 bus1=71.1.2.3 bus2=72.1.2.3 length=111.28 Geometry=geometria_s35 units=m phases=3
New Line.idlinea99_idtramos_46 bus1=88.1.2.3 bus2=73.1.2.3 length=48.26 Geometry=geometria_s35 units=m phases=3
New Line.idlinea20_idtramos_47 bus1=74.1.2.3 bus2=75.1.2.3 length=296.97 Geometry=geometria_s70 units=m phases=3
New Line.idlinea65_idtramos_48 bus1=76.1.2.3 bus2=77.1.2.3 length=359.61 Geometry=geometria_s70 units=m phases=3
New Line.idlinea65_idtramos_49 bus1=77.1.2.3 bus2=79.1.2.3 length=87.42 Geometry=geometria_s70 units=m phases=3
New Line.idlinea66_idtramos_50 bus1=78.1.2.3 bus2=79.1.2.3 length=272.81 Geometry=geometria_s70 units=m phases=3
New Line.idlinea96_idtramos_51 bus1=80.1.2.3 bus2=81.1.2.3 length=6.43 Geometry=geometria_s70 units=m phases=3
New Line.idlinea22_idtramos_52 bus1=82.1.2.3 bus2=83.1.2.3 length=6.5 Geometry=geometria_s35 units=m phases=3
New Line.idlinea97_idtramos_53 bus1=84.1.2.3 bus2=85.1.2.3 length=33.46 Geometry=geometria_s35 units=m phases=3
New Line.idlinea98_idtramos_54 bus1=86.1.2.3 bus2=87.1.2.3 length=31.23 Geometry=geometria_s70 units=m phases=3
New Line.idlinea100_idtramos_55 bus1=88.1.2.3 bus2=89.1.2.3 length=42.0 Geometry=geometria_s35 units=m phases=3
New Line.idlinea101_idtramos_56 bus1=90.1.2.3 bus2=91.1.2.3 length=14.32 Geometry=geometria_s35 units=m phases=3
New Line.idlinea102_idtramos_57 bus1=92.1.2.3 bus2=93.1.2.3 length=301.57 Geometry=geometria_s35 units=m phases=3
New Line.idlinea103_idtramos_58 bus1=94.1.2.3 bus2=95.1.2.3 length=236.55 Geometry=geometria_s35 units=m phases=3
New Line.idlinea104_idtramos_59 bus1=95.1.2.3 bus2=96.1.2.3 length=528.53 Geometry=geometria_s35 units=m phases=3
New Line.idlinea105_idtramos_60 bus1=97.1.2.3 bus2=98.1.2.3 length=37.3 Geometry=geometria_s35 units=m phases=3
New Line.idlinea106_idtramos_61 bus1=101.1.2.3 bus2=99.1.2.3 length=29.74 Geometry=geometria_s35 units=m phases=3
New Line.idlinea107_idtramos_62 bus1=100.1.2.3 bus2=101.1.2.3 length=70.51 Geometry=geometria_s50 units=m phases=3
New Line.idlinea108_idtramos_63 bus1=102.1.2.3 bus2=103.1.2.3 length=512.09 Geometry=geometria_s70 units=m phases=3
New Line.idlinea23_idtramos_64 bus1=104.1.2.3 bus2=105.1.2.3 length=5.21 Geometry=geometria_s35 units=m phases=3
New Line.idlinea44_idtramos_65 bus1=106.1.2.3 bus2=107.1.2.3 length=24.32 Geometry=geometria_s35 units=m phases=3
New Line.idlinea45_idtramos_66 bus1=108.1.2.3 bus2=109.1.2.3 length=51.73 Geometry=geometria_s50 units=m phases=3
New Line.idlinea109_idtramos_67 bus1=110.1.2.3 bus2=111.1.2.3 length=40.94 Geometry=geometria_s70 units=m phases=3
New Line.idlinea110_idtramos_68 bus1=112.1.2.3 bus2=113.1.2.3 length=24.85 Geometry=geometria_s35 units=m phases=3
New Line.idlinea46_idtramos_69 bus1=108.1.2.3 bus2=114.1.2.3 length=48.06 Geometry=geometria_s70 units=m phases=3
New Line.idlinea46_idtramos_70 bus1=114.1.2.3 bus2=115.1.2.3 length=21.48 Geometry=geometria_s70 units=m phases=3
New Line.idlinea46_idtramos_71 bus1=115.1.2.3 bus2=116.1.2.3 length=45.68 Geometry=geometria_s70 units=m phases=3
New Line.idlinea46_idtramos_72 bus1=116.1.2.3 bus2=117.1.2.3 length=86.44 Geometry=geometria_s70 units=m phases=3
New Line.idlinea46_idtramos_73 bus1=117.1.2.3 bus2=118.1.2.3 length=173.17 Geometry=geometria_s70 units=m phases=3
New Line.idlinea46_idtramos_74 bus1=118.1.2.3 bus2=119.1.2.3 length=304.81 Geometry=geometria_s70 units=m phases=3
New Line.idlinea46_idtramos_75 bus1=119.1.2.3 bus2=120.1.2.3 length=705.19 Geometry=geometria_s70 units=m phases=3
New Line.idlinea47_idtramos_76 bus1=121.1.2.3 bus2=122.1.2.3 length=55.53 Geometry=geometria_s35 units=m phases=3
New Line.idlinea47_idtramos_77 bus1=122.1.2.3 bus2=123.1.2.3 length=261.86 Geometry=geometria_s35 units=m phases=3
New Line.idlinea48_idtramos_78 bus1=125.1.2.3 bus2=124.1.2.3 length=54.2 Geometry=geometria_s50 units=m phases=3
New Line.idlinea49_idtramos_79 bus1=125.1.2.3 bus2=126.1.2.3 length=29.2 Geometry=geometria_s35 units=m phases=3
New Line.idlinea50_idtramos_80 bus1=29.1.2.3 bus2=127.1.2.3 length=22.0 Geometry=geometria_s50 units=m phases=3
New Line.idlinea51_idtramos_81 bus1=128.1.2.3 bus2=129.1.2.3 length=328.63 Geometry=geometria_s35 units=m phases=3
New Line.idlinea52_idtramos_82 bus1=131.1.2.3 bus2=130.1.2.3 length=362.38 Geometry=geometria_s50 units=m phases=3
New Line.idlinea53_idtramos_83 bus1=131.1.2.3 bus2=132.1.2.3 length=57.04 Geometry=geometria_s50 units=m phases=3
New Line.idlinea111_idtramos_84 bus1=133.1.2.3 bus2=134.1.2.3 length=59.32 Geometry=geometria_s35 units=m phases=3
New Line.idlinea112_idtramos_85 bus1=135.1.2.3 bus2=136.1.2.3 length=48.97 Geometry=geometria_s35 units=m phases=3
New Line.idlinea114_idtramos_86 bus1=137.1.2.3 bus2=138.1.2.3 length=26.02 Geometry=geometria_s35 units=m phases=3
New Line.idlinea122_idtramos_87 bus1=139.1.2.3 bus2=140.1.2.3 length=31.22 Geometry=geometria_s35 units=m phases=3
New Line.idlinea57_idtramos_88 bus1=144.1.2.3 bus2=141.1.2.3 length=870.92 Geometry=geometria_s25 units=m phases=3
New Line.idlinea24_idtramos_89 bus1=142.1.2.3 bus2=143.1.2.3 length=186.25 Geometry=geometria_s50 units=m phases=3
New Line.idlinea58_idtramos_90 bus1=144.1.2.3 bus2=145.1.2.3 length=658.95 Geometry=geometria_s50 units=m phases=3
New Line.idlinea59_idtramos_91 bus1=47.1.2.3 bus2=146.1.2.3 length=11.12 Geometry=geometria_s50 units=m phases=3
New Line.idlinea59_idtramos_92 bus1=146.1.2.3 bus2=147.1.2.3 length=30.4 Geometry=geometria_s50 units=m phases=3
New Line.idlinea59_idtramos_93 bus1=147.1.2.3 bus2=148.1.2.3 length=726.19 Geometry=geometria_s50 units=m phases=3
New Line.idlinea124_idtramos_94 bus1=149.1.2.3 bus2=150.1.2.3 length=152.65 Geometry=geometria_s50 units=m phases=3
New Line.idlinea125_idtramos_95 bus1=151.1.2.3 bus2=152.1.2.3 length=9.29 Geometry=geometria_s70 units=m phases=3
New Line.idlinea125_idtramos_96 bus1=152.1.2.3 bus2=153.1.2.3 length=552.06 Geometry=geometria_s70 units=m phases=3
New Line.idlinea25_idtramos_97 bus1=142.1.2.3 bus2=154.1.2.3 length=17.19 Geometry=geometria_s70 units=m phases=3
New Line.idlinea25_idtramos_98 bus1=154.1.2.3 bus2=156.1.2.3 length=224.6 Geometry=geometria_s70 units=m phases=3
New Line.idlinea126_idtramos_99 bus1=164.1.2.3 bus2=155.1.2.3 length=52.45 Geometry=geometria_s50 units=m phases=3
New Line.idlinea26_idtramos_100 bus1=156.1.2.3 bus2=176.1.2.3 length=1032.36 Geometry=geometria_s95 units=m phases=3
New Line.idlinea60_idtramos_101 bus1=43.1.2.3 bus2=157.1.2.3 length=58.39 Geometry=geometria_s50 units=m phases=3
New Line.idlinea113_idtramos_102 bus1=158.1.2.3 bus2=159.1.2.3 length=219.91 Geometry=geometria_s35 units=m phases=3
New Line.idlinea113_idtramos_103 bus1=159.1.2.3 bus2=160.1.2.3 length=86.94 Geometry=geometria_s35 units=m phases=3
New Line.idlinea127_idtramos_104 bus1=161.1.2.3 bus2=162.1.2.3 length=30.46 Geometry=geometria_s25 units=m phases=3
New Line.idlinea131_idtramos_105 bus1=163.1.2.3 bus2=164.1.2.3 length=28.5 Geometry=geometria_s50 units=m phases=3
New Line.idlinea132_idtramos_106 bus1=165.1.2.3 bus2=166.1.2.3 length=34.36 Geometry=geometria_s70 units=m phases=3
New Line.idlinea133_idtramos_107 bus1=167.1.2.3 bus2=168.1.2.3 length=99.14 Geometry=geometria_s70 units=m phases=3
New Line.idlinea134_idtramos_108 bus1=169.1.2.3 bus2=170.1.2.3 length=746.2 Geometry=geometria_s50 units=m phases=3
New Line.idlinea135_idtramos_109 bus1=170.1.2.3 bus2=171.1.2.3 length=583.21 Geometry=geometria_s50 units=m phases=3
New Line.idlinea135_idtramos_110 bus1=171.1.2.3 bus2=92.1.2.3 length=10.42 Geometry=geometria_s50 units=m phases=3
New Line.idlinea136_idtramos_111 bus1=174.1.2.3 bus2=172.1.2.3 length=36.42 Geometry=geometria_s35 units=m phases=3
New Line.idlinea137_idtramos_112 bus1=173.1.2.3 bus2=174.1.2.3 length=320.94 Geometry=geometria_s50 units=m phases=3
New Line.idlinea138_idtramos_113 bus1=97.1.2.3 bus2=175.1.2.3 length=35.07 Geometry=geometria_s35 units=m phases=3
New Line.idlinea27_idtramos_114 bus1=176.1.2.3 bus2=17.1.2.3 length=26.92 Geometry=geometria_s70 units=m phases=3
New Line.idlinea139_idtramos_115 bus1=177.1.2.3 bus2=178.1.2.3 length=31.67 Geometry=geometria_s35 units=m phases=3
New Line.idlinea140_idtramos_116 bus1=179.1.2.3 bus2=180.1.2.3 length=31.84 Geometry=geometria_s35 units=m phases=3
New Line.idlinea141_idtramos_117 bus1=181.1.2.3 bus2=182.1.2.3 length=16.18 Geometry=geometria_s35 units=m phases=3
New Line.idlinea142_idtramos_118 bus1=183.1.2.3 bus2=184.1.2.3 length=1.07 Geometry=geometria_s95 units=m phases=3
New Line.idlinea142_idtramos_119 bus1=184.1.2.3 bus2=185.1.2.3 length=37.23 Geometry=geometria_s95 units=m phases=3
New Line.idlinea143_idtramos_120 bus1=94.1.2.3 bus2=187.1.2.3 length=17.93 Geometry=geometria_s70 units=m phases=3
New Line.idlinea144_idtramos_121 bus1=186.1.2.3 bus2=187.1.2.3 length=30.92 Geometry=geometria_s70 units=m phases=3
New Line.idlinea145_idtramos_122 bus1=188.1.2.3 bus2=189.1.2.3 length=40.58 Geometry=geometria_s35 units=m phases=3
New Line.idlinea146_idtramos_123 bus1=188.1.2.3 bus2=190.1.2.3 length=12.93 Geometry=geometria_s35 units=m phases=3
New Line.idlinea146_idtramos_124 bus1=190.1.2.3 bus2=191.1.2.3 length=41.48 Geometry=geometria_s35 units=m phases=3
New Line.idlinea147_idtramos_125 bus1=192.1.2.3 bus2=193.1.2.3 length=10.62 Geometry=geometria_s95 units=m phases=3
New Line.idlinea148_idtramos_126 bus1=194.1.2.3 bus2=195.1.2.3 length=38.67 Geometry=geometria_s35 units=m phases=3
New Line.idlinea149_idtramos_127 bus1=196.1.2.3 bus2=197.1.2.3 length=28.56 Geometry=geometria_s35 units=m phases=3
New Line.idlinea150_idtramos_128 bus1=198.1.2.3 bus2=199.1.2.3 length=67.16 Geometry=geometria_s35 units=m phases=3
New Line.idlinea151_idtramos_129 bus1=201.1.2.3 bus2=200.1.2.3 length=8.71 Geometry=geometria_s35 units=m phases=3
New Line.idlinea152_idtramos_130 bus1=201.1.2.3 bus2=202.1.2.3 length=11.28 Geometry=geometria_s35 units=m phases=3
New Line.idlinea153_idtramos_131 bus1=203.1.2.3 bus2=204.1.2.3 length=15.28 Geometry=geometria_s35 units=m phases=3
New Line.idlinea154_idtramos_132 bus1=205.1.2.3 bus2=206.1.2.3 length=5.28 Geometry=geometria_s120 units=m phases=3
New Line.idlinea155_idtramos_133 bus1=188.1.2.3 bus2=207.1.2.3 length=185.04 Geometry=geometria_s120 units=m phases=3
New Line.idlinea158_idtramos_134 bus1=208.1.2.3 bus2=209.1.2.3 length=112.79 Geometry=geometria_s70 units=m phases=3
New Line.idlinea159_idtramos_135 bus1=210.1.2.3 bus2=211.1.2.3 length=35.06 Geometry=geometria_s70 units=m phases=3
New Line.idlinea173_idtramos_136 bus1=212.1.2.3 bus2=213.1.2.3 length=79.3 Geometry=geometria_s35 units=m phases=3
New Line.idlinea174_idtramos_137 bus1=214.1.2.3 bus2=216.1.2.3 length=60.32 Geometry=geometria_s35 units=m phases=3
New Line.idlinea175_idtramos_138 bus1=215.1.2.3 bus2=216.1.2.3 length=35.54 Geometry=geometria_s35 units=m phases=3
New Line.idlinea184_idtramos_139 bus1=217.1.2.3 bus2=218.1.2.3 length=16.27 Geometry=geometria_s35 units=m phases=3
New Line.idlinea185_idtramos_140 bus1=219.1.2.3 bus2=220.1.2.3 length=196.54 Geometry=geometria_s50 units=m phases=3
New Line.idlinea186_idtramos_141 bus1=221.1.2.3 bus2=222.1.2.3 length=28.64 Geometry=geometria_s35 units=m phases=3
New Line.idlinea187_idtramos_142 bus1=223.1.2.3 bus2=224.1.2.3 length=17.7 Geometry=geometria_s35 units=m phases=3
New Line.idlinea188_idtramos_143 bus1=225.1.2.3 bus2=226.1.2.3 length=4.91 Geometry=geometria_s35 units=m phases=3
New Line.idlinea189_idtramos_144 bus1=227.1.2.3 bus2=228.1.2.3 length=15.03 Geometry=geometria_s35 units=m phases=3
New Line.idlinea190_idtramos_145 bus1=229.1.2.3 bus2=230.1.2.3 length=2.43 Geometry=geometria_s35 units=m phases=3
New Line.idlinea190_idtramos_146 bus1=230.1.2.3 bus2=231.1.2.3 length=12.02 Geometry=geometria_s35 units=m phases=3
New Line.idlinea191_idtramos_147 bus1=232.1.2.3 bus2=233.1.2.3 length=18.21 Geometry=geometria_s35 units=m phases=3
New Line.idlinea195_idtramos_148 bus1=234.1.2.3 bus2=235.1.2.3 length=10.43 Geometry=geometria_s95 units=m phases=3
New Line.idlinea196_idtramos_149 bus1=236.1.2.3 bus2=237.1.2.3 length=36.42 Geometry=geometria_s70 units=m phases=3
New Line.idlinea196_idtramos_150 bus1=237.1.2.3 bus2=238.1.2.3 length=15.69 Geometry=geometria_s70 units=m phases=3
New Line.idlinea197_idtramos_151 bus1=239.1.2.3 bus2=240.1.2.3 length=513.85 Geometry=geometria_s95 units=m phases=3
New Line.idlinea197_idtramos_152 bus1=240.1.2.3 bus2=241.1.2.3 length=21.39 Geometry=geometria_s95 units=m phases=3
New Line.idlinea197_idtramos_153 bus1=241.1.2.3 bus2=242.1.2.3 length=0.47 Geometry=geometria_s95 units=m phases=3
New Line.idlinea198_idtramos_154 bus1=242.1.2.3 bus2=243.1.2.3 length=6.68 Geometry=geometria_s35 units=m phases=3
New Line.idlinea199_idtramos_155 bus1=244.1.2.3 bus2=245.1.2.3 length=5.96 Geometry=geometria_s35 units=m phases=3
New Line.idlinea200_idtramos_156 bus1=246.1.2.3 bus2=247.1.2.3 length=13.14 Geometry=geometria_s35 units=m phases=3
New Line.idlinea201_idtramos_157 bus1=248.1.2.3 bus2=249.1.2.3 length=35.28 Geometry=geometria_s35 units=m phases=3
New Line.idlinea202_idtramos_158 bus1=250.1.2.3 bus2=251.1.2.3 length=5.5 Geometry=geometria_s35 units=m phases=3
New Line.idlinea29_idtramos_159 bus1=252.1.2.3 bus2=253.1.2.3 length=610.02 Geometry=geometria_s70 units=m phases=3
New Line.idlinea30_idtramos_160 bus1=254.1.2.3 bus2=255.1.2.3 length=12.59 Geometry=geometria_s50 units=m phases=3
New Line.idlinea31_idtramos_161 bus1=13.1.2.3 bus2=256.1.2.3 length=12.71 Geometry=geometria_s70 units=m phases=3
New Line.idlinea115_idtramos_162 bus1=158.1.2.3 bus2=257.1.2.3 length=34.45 Geometry=geometria_s35 units=m phases=3
New Line.idlinea160_idtramos_163 bus1=258.1.2.3 bus2=259.1.2.3 length=222.6 Geometry=geometria_s35 units=m phases=3
New Line.idlinea160_idtramos_164 bus1=259.1.2.3 bus2=260.1.2.3 length=16.41 Geometry=geometria_s35 units=m phases=3
New Line.idlinea203_idtramos_165 bus1=202.1.2.3 bus2=261.1.2.3 length=173.95 Geometry=geometria_s95 units=m phases=3
New Line.idlinea203_idtramos_166 bus1=261.1.2.3 bus2=262.1.2.3 length=44.07 Geometry=geometria_s95 units=m phases=3
New Line.idlinea116_idtramos_167 bus1=110.1.2.3 bus2=263.1.2.3 length=35.91 Geometry=geometria_s35 units=m phases=3
New Line.idlinea117_idtramos_168 bus1=264.1.2.3 bus2=265.1.2.3 length=31.85 Geometry=geometria_s35 units=m phases=3
New Line.idlinea33_idtramos_169 bus1=63.1.2.3 bus2=302.1.2.3 length=24.27 Geometry=geometria_s95 units=m phases=3
New Line.idlinea118_idtramos_170 bus1=266.1.2.3 bus2=267.1.2.3 length=13.23 Geometry=geometria_s35 units=m phases=3
New Line.idlinea162_idtramos_171 bus1=268.1.2.3 bus2=269.1.2.3 length=362.76 Geometry=geometria_s35 units=m phases=3
New Line.idlinea163_idtramos_172 bus1=270.1.2.3 bus2=271.1.2.3 length=22.84 Geometry=geometria_s35 units=m phases=3
New Line.idlinea164_idtramos_173 bus1=272.1.2.3 bus2=273.1.2.3 length=22.37 Geometry=geometria_s35 units=m phases=3
New Line.idlinea63_idtramos_174 bus1=274.1.2.3 bus2=275.1.2.3 length=25.91 Geometry=geometria_s35 units=m phases=3
New Line.idlinea119_idtramos_175 bus1=276.1.2.3 bus2=277.1.2.3 length=535.72 Geometry=geometria_s70 units=m phases=3
New Line.idlinea64_idtramos_176 bus1=274.1.2.3 bus2=278.1.2.3 length=44.58 Geometry=geometria_s25 units=m phases=3
New Line.idlinea64_idtramos_177 bus1=278.1.2.3 bus2=279.1.2.3 length=22.11 Geometry=geometria_s25 units=m phases=3
New Line.idlinea64_idtramos_178 bus1=279.1.2.3 bus2=280.1.2.3 length=50.35 Geometry=geometria_s25 units=m phases=3
New Line.idlinea64_idtramos_179 bus1=280.1.2.3 bus2=281.1.2.3 length=37.98 Geometry=geometria_s25 units=m phases=3
New Line.idlinea64_idtramos_180 bus1=281.1.2.3 bus2=282.1.2.3 length=21.4 Geometry=geometria_s25 units=m phases=3
New Line.idlinea64_idtramos_181 bus1=282.1.2.3 bus2=283.1.2.3 length=101.51 Geometry=geometria_s25 units=m phases=3
New Line.idlinea64_idtramos_182 bus1=283.1.2.3 bus2=284.1.2.3 length=173.78 Geometry=geometria_s25 units=m phases=3
New Line.idlinea64_idtramos_183 bus1=284.1.2.3 bus2=285.1.2.3 length=13.18 Geometry=geometria_s25 units=m phases=3
New Line.idlinea64_idtramos_184 bus1=285.1.2.3 bus2=286.1.2.3 length=604.21 Geometry=geometria_s25 units=m phases=3
New Line.idlinea64_idtramos_185 bus1=286.1.2.3 bus2=287.1.2.3 length=7.5 Geometry=geometria_s25 units=m phases=3
New Line.idlinea34_idtramos_186 bus1=64.1.2.3 bus2=288.1.2.3 length=39.73 Geometry=geometria_s35 units=m phases=3
New Line.idlinea36_idtramos_187 bus1=289.1.2.3 bus2=290.1.2.3 length=8.61 Geometry=geometria_s35 units=m phases=3
New Line.idlinea37_idtramos_188 bus1=186.1.2.3 bus2=291.1.2.3 length=101.89 Geometry=geometria_s70 units=m phases=3
New Line.idlinea67_idtramos_189 bus1=292.1.2.3 bus2=293.1.2.3 length=15.95 Geometry=geometria_s50 units=m phases=3
New Line.idlinea67_idtramos_190 bus1=293.1.2.3 bus2=78.1.2.3 length=698.57 Geometry=geometria_s50 units=m phases=3
New Line.idlinea68_idtramos_191 bus1=294.1.2.3 bus2=295.1.2.3 length=14.55 Geometry=geometria_s70 units=m phases=3
New Line.idlinea69_idtramos_192 bus1=296.1.2.3 bus2=297.1.2.3 length=28.83 Geometry=geometria_s35 units=m phases=3
New Line.idlinea70_idtramos_193 bus1=298.1.2.3 bus2=299.1.2.3 length=124.43 Geometry=geometria_s50 units=m phases=3
New Line.idlinea71_idtramos_194 bus1=300.1.2.3 bus2=301.1.2.3 length=21.78 Geometry=geometria_s50 units=m phases=3
New Line.idlinea72_idtramos_195 bus1=302.1.2.3 bus2=303.1.2.3 length=58.38 Geometry=geometria_s70 units=m phases=3
...
