dss/export/capas-pablo/compl-pvsy-linegeom-loadsh-csv-gen-cap-stwcontrol-curvasdecarga-normamps-arreglos-homogeneos/Transformer.dss
New Transformer.idseta_2 phases=3 wdg=1 bus=632.1.2.3 kv=13.2 kVA=16.0 wdg=2 tap=1.0 bus=x_2.1.2.3 kv=0.38 kVA=16.0 %imag=0.5 %loadloss=1.5 %noloadloss=0.25 XHL=2.0 conns=[delta, wye, ] ppm_antifloat=0
New Transformer.idseta_10 phases=3 wdg=1 bus=1202.1.2.3 kv=13.2 kVA=200.0 wdg=2 tap=1.0 bus=x_10.1.2.3 kv=0.38 kVA=200.0 %imag=0.5 %loadloss=1.5 %noloadloss=0.25 XHL=2.0 conns=[delta, wye, ] ppm_antifloat=0
New Transformer.idseta_79 phases=3 wdg=1 bus=1198.1.2.3 kv=13.2 kVA=125.0 wdg=2 tap=1.0 bus=x_79.1.2.3 kv=0.38 kVA=125.0 %imag=0.5 %loadloss=1.5 %noloadloss=0.25 XHL=2.0 conns=[delta, wye, ] ppm_antifloat=0
New Transformer.idseta_80 phases=3 wdg=1 bus=1229.1.2.3 kv=13.2 kVA=200.0 wdg=2 tap=1.0 bus=x_80.1.2.3 kv=0.38 kVA=200.0 %imag=0.5 %loadloss=1.5 %noloadloss=0.25 XHL=2.0 conns=[delta, wye, ] ppm_antifloat=0
New Transformer.idseta_84 phases=3 wdg=1 bus=1216.1.2.3 kv=13.2 kVA=100.0 wdg=2 tap=1.0 bus=x_84.1.2.3 kv=0.38 kVA=100.0 %imag=0.5 %loadloss=1.5 %noloadloss=0.25 XHL=2.0 conns=[delta, wye, ] ppm_antifloat=0
New Transformer.idseta_85 phases=3 wdg=1 bus=1569.1.2.3 kv=13.2 kVA=250.0 wdg=2 tap=1.0 bus=x_85.1.2.3 kv=0.38 kVA=250.0 %imag=0.5 %loadloss=1.5 %noloadloss=0.25 XHL=2.0 conns=[delta, wye, ] ppm_antifloat=0
New Transformer.idseta_86 phases=3 wdg=1 bus=1251.1.2.3 kv=13.2 kVA=160.0 wdg=2 tap=1.0 bus=x_86.1.2.3 kv=0.38 kVA=160.0 %imag=0.5 %loadloss=1.5 %noloadloss=0.25 XHL=2.0 conns=[delta, wye, ] ppm_antifloat=0
New Transformer.idseta_87 phases=3 wdg=1 bus=1261.1.2.3 kv=13.2 kVA=160.0 wdg=2 tap=1.0 bus=x_87.1.2.3 kv=0.38 kVA=160.0 %imag=0.5 %loadloss=1.5 %noloadloss=0.25 XHL=2.0 conns=[delta, wye, ] ppm_antifloat=0
New Transformer.idseta_200 phases=3 wdg=1 bus=1253.1.2.3 kv=13.2 kVA=200.0 wdg=2 tap=1.0 bus=x_200.1.2.3 kv=0.38 kVA=200.0 %imag=0.5 %loadloss=1.5 %noloadloss=0.25 XHL=2.0 conns=[delta, wye, ] ppm_antifloat=0
New Transformer.idseta_278 phases=3 wdg=1 bus=1042.1.2.3 kv=13.2 kVA=63.0 wdg=2 tap=1.0 bus=x_278.1.2.3 kv=0.38 kVA=63.0 %imag=0.5 %loadloss=1.5 %noloadloss=0.25 XHL=2.0 conns=[delta, wye, ] ppm_antifloat=0
New Transformer.idseta_337 phases=3 wdg=1 bus=722.1.2.3 kv=13.2 kVA=100.0 wdg=2 tap=1.0 bus=x_337.1.2.3 kv=0.38 kVA=100.0 %imag=0.5 %loadloss=1.5 %noloadloss=0.25 XHL=2.0 conns=[delta, wye, ] ppm_antifloat=0
New Transformer.idseta_531 phases=3 wdg=1 bus=712.1.2.3 kv=13.2 kVA=5.0 wdg=2 tap=1.0 bus=x_531.1.2.3 kv=0.38 kVA=5.0 %imag=0.5 %loadloss=1.5 %noloadloss=0.25 XHL=2.0 conns=[delta, wye, ] ppm_antifloat=0
New Transformer.idseta_540 phases=3 wdg=1 bus=79.1.2.3 kv=13.2 kVA=10.0 wdg=2 tap=1.0 bus=x_540.1.2.3 kv=0.38 kVA=10.0 %imag=0.5 %loadloss=1.5 %noloadloss=0.25 XHL=2.0 conns=[delta, wye, ] ppm_antifloat=0
New Transformer.idseta_541 phases=3 wdg=1 bus=76.1.2.3 kv=13.2 kVA=25.0 wdg=2 tap=1.0 bus=x_541.1.2.3 kv=0.38 kVA=25.0 %imag=0.5 %loadloss=1.5 %noloadloss=0.25 XHL=2.0 conns=[delta, wye, ] ppm_antifloat=0
New Transformer.idseta_551 phases=3 wdg=1 bus=979.1.2.3 kv=13.2 kVA=25.0 wdg=2 tap=1.0 bus=x_551.1.2.3 kv=0.38 kVA=25.0 %imag=0.5 %loadloss=1.5 %noloadloss=0.25 XHL=2.0 conns=[delta, wye, ] ppm_antifloat=0
New Transformer.idseta_594 phases=3 wdg=1 bus=33.1.2.3 kv=13.2 kVA=200.0 wdg=2 tap=1.0 bus=x_594.1.2.3 kv=0.38 kVA=200.0 %imag=0.5 %loadloss=1.5 %noloadloss=0.25 XHL=2.0 conns=[delta, wye, ] ppm_antifloat=0
New Transformer.idseta_637 phases=3 wdg=1 bus=1068.1.2.3 kv=13.2 kVA=80.0 wdg=2 tap=1.0 bus=x_637.1.2.3 kv=0.38 kVA=80.0 %imag=0.5 %loadloss=1.5 %noloadloss=0.25 XHL=2.0 conns=[delta, wye, ] ppm_antifloat=0
New Transformer.idseta_644 phases=3 wdg=1 bus=665.1.2.3 kv=13.2 kVA=75.0 wdg=2 tap=1.0 bus=x_644.1.2.3 kv=0.38 kVA=75.0 %imag=0.5 %loadloss=1.5 %noloadloss=0.25 XHL=2.0 conns=[delta, wye, ] ppm_antifloat=0
New Transformer.idseta_656 phases=3 wdg=1 bus=1775.1.2.3 kv=13.2 kVA=80.0 wdg=2 tap=1.0 bus=x_656.1.2.3 kv=0.38 kVA=80.0 %imag=0.5 %loadloss=1.5 %noloadloss=0.25 XHL=2.0 conns=[delta, wye, ] ppm_antifloat=0
New Transformer.idseta_659 phases=3 wdg=1 bus=578.1.2.3 kv=13.2 kVA=16.0 wdg=2 tap=1.0 bus=x_659.1.2.3 kv=0.38 kVA=16.0 %imag=0.5 %loadloss=1.5 %noloadloss=0.25 XHL=2.0 conns=[delta, wye, ] ppm_antifloat=0
New Transformer.idseta_781 phases=3 wdg=1 bus=1069.1.2.3 kv=13.2 kVA=80.0 wdg=2 tap=1.0 bus=x_781.1.2.3 kv=0.38 kVA=80.0 %imag=0.5 %loadloss=1.5 %noloadloss=0.25 XHL=2.0 conns=[delta, wye, ] ppm_antifloat=0
New Transformer.idseta_784 phases=3 wdg=1 bus=102.1.2.3 kv=13.2 kVA=160.0 wdg=2 tap=1.0 bus=x_784.1.2.3 kv=0.38 kVA=160.0 %imag=0.5 %loadloss=1.5 %noloadloss=0.25 XHL=2.0 conns=[delta, wye, ] ppm_antifloat=0
New Transformer.idseta_805 phases=3 wdg=1 bus=1065.1.2.3 kv=13.2 kVA=40.0 wdg=2 tap=1.0 bus=x_805.1.2.3 kv=0.38 kVA=40.0 %imag=0.5 %loadloss=1.5 %noloadloss=0.25 XHL=2.0 conns=[delta, wye, ] ppm_antifloat=0
New Transformer.idseta_821 phases=3 wdg=1 bus=112.1.2.3 kv=13.2 kVA=40.0 wdg=2 tap=1.0 bus=x_821.1.2.3 kv=0.38 kVA=40.0 %imag=0.5 %loadloss=1.5 %noloadloss=0.25 XHL=2.0 conns=[delta, wye, ] ppm_antifloat=0
New Transformer.idseta_828 phases=3 wdg=1 bus=1596.1.2.3 kv=13.2 kVA=80.0 wdg=2 tap=1.0 bus=x_828.1.2.3 kv=0.38 kVA=80.0 %imag=0.5 %loadloss=1.5 %noloadloss=0.25 XHL=2.0 conns=[delta, wye, ] ppm_antifloat=0
New Transformer.idseta_14 phases=3 wdg=1 bus=1227.1.2.3 kv=13.2 kVA=315.0 wdg=2 tap=1.0 bus=x_14.1.2.3 kv=0.38 kVA=315.0 %imag=0.5 %loadloss=1.5 %noloadloss=0.25 XHL=2.0 conns=[delta, wye, ] ppm_antifloat=0
New Transformer.idseta_15 phases=3 wdg=1 bus=1233.1.2.3 kv=13.2 kVA=315.0 wdg=2 tap=1.0 bus=x_15.1.2.3 kv=0.38 kVA=315.0 %imag=0.5 %loadloss=1.5 %noloadloss=0.25 XHL=2.0 conns=[delta, wye, ] ppm_antifloat=0
New Transformer.idseta_17 phases=3 wdg=1 bus=1519.1.2.3 kv=13.2 kVA=400.0 wdg=2 tap=1.0 bus=x_17.1.2.3 kv=0.38 kVA=400.0 %imag=0.5 %loadloss=1.5 %noloadloss=0.25 XHL=2.0 conns=[delta, wye, ] ppm_antifloat=0
New Transformer.idseta_20 phases=3 wdg=1 bus=343.1.2.3 kv=13.2 kVA=80.0 wdg=2 tap=1.0 bus=x_20.1.2.3 kv=0.38 kVA=80.0 %imag=0.5 %loadloss=1.5 %noloadloss=0.25 XHL=2.0 conns=[delta, wye, ] ppm_antifloat=0
New Transformer.idseta_50 phases=3 wdg=1 bus=1264.1.2.3 kv=13.2 kVA=400.0 wdg=2 tap=1.0 bus=x_50.1.2.3 kv=0.38 kVA=400.0 %imag=0.5 %loadloss=1.5 %noloadloss=0.25 XHL=2.0 conns=[delta, wye, ] ppm_antifloat=0
New Transformer.idseta_51 phases=3 wdg=1 bus=1265.1.2.3 kv=13.2 kVA=315.0 wdg=2 tap=1.0 bus=x_51.1.2.3 kv=0.38 kVA=315.0 %imag=0.5 %loadloss=1.5 %noloadloss=0.25 XHL=2.0 conns=[delta, wye, ] ppm_antifloat=0
New Transformer.idseta_1243 phases=3 wdg=1 bus=1153.1.2.3 kv=13.2 kVA=25.0 wdg=2 tap=1.0 bus=x_1243.1.2.3 kv=0.38 kVA=25.0 %imag=0.5 %loadloss=1.5 %noloadloss=0.25 XHL=2.0 conns=[delta, wye, ] ppm_antifloat=0
New Transformer.idseta_1244 phases=3 wdg=1 bus=1157.1.2.3 kv=13.2 kVA=80.0 wdg=2 tap=1.0 bus=x_1244.1.2.3 kv=0.38 kVA=80.0 %imag=0.5 %loadloss=1.5 %noloadloss=0.25 XHL=2.0 conns=[delta, wye, ] ppm_antifloat=0
New Transformer.idseta_1245 phases=3 wdg=1 bus=1156.1.2.3 kv=13.2 kVA=80.0 wdg=2 tap=1.0 bus=x_1245.1.2.3 kv=0.38 kVA=80.0 %imag=0.5 %loadloss=1.5 %noloadloss=0.25 XHL=2.0 conns=[delta, wye, ] ppm_antifloat=0
New Transformer.idseta_1289 phases=3 wdg=1 bus=661.1.2.3 kv=13.2 kVA=100.0 wdg=2 tap=1.0 bus=x_1289.1.2.3 kv=0.38 kVA=100.0 %imag=0.5 %loadloss=1.5 %noloadloss=0.25 XHL=2.0 conns=[delta, wye, ] ppm_antifloat=0
New Transformer.idseta_1318 phases=3 wdg=1 bus=1087.1.2.3 kv=13.2 kVA=5.0 wdg=2 tap=1.0 bus=x_1318.1.2.3 kv=0.38 kVA=5.0 %imag=0.5 %loadloss=1.5 %noloadloss=0.25 XHL=2.0 conns=[delta, wye, ] ppm_antifloat=0
New Transformer.idseta_1326 phases=3 wdg=1 bus=624.1.2.3 kv=13.2 kVA=5.0 wdg=2 tap=1.0 bus=x_1326.1.2.3 kv=0.38 kVA=5.0 %imag=0.5 %loadloss=1.5 %noloadloss=0.25 XHL=2.0 conns=[delta, wye, ] ppm_antifloat=0
New Transformer.idseta_1352 phases=3 wdg=1 bus=1132.1.2.3 kv=13.2 kVA=160.0 wdg=2 tap=1.0 bus=x_1352.1.2.3 kv=0.38 kVA=160.0 %imag=0.5 %loadloss=1.5 %noloadloss=0.25 XHL=2.0 conns=[delta, wye, ] ppm_antifloat=0
New Transformer.idseta_5030 phases=3 wdg=1 bus=1441.1.2.3 kv=33.0 kVA=25.0 wdg=2 tap=1.0 bus=x_5030.1.2.3 kv=0.38 kVA=25.0 %imag=0.5 %loadloss=1.5 %noloadloss=0.25 XHL=2.0 conns=[delta, wye, ] ppm_antifloat=0
New Transformer.idseta_1353 phases=3 wdg=1 bus=1151.1.2.3 kv=13.2 kVA=200.0 wdg=2 tap=1.0 bus=x_1353.1.2.3 kv=0.38 kVA=200.0 %imag=0.5 %loadloss=1.5 %noloadloss=0.25 XHL=2.0 conns=[delta, wye, ] ppm_antifloat=0
New Transformer.idseta_1984 phases=3 wdg=1 bus=276.1.2.3 kv=13.2 kVA=40.0 wdg=2 tap=1.0 bus=x_1984.1.2.3 kv=0.38 kVA=40.0 %imag=0.5 %loadloss=1.5 %noloadloss=0.25 XHL=2.0 conns=[delta, wye, ] ppm_antifloat=0
New Transformer.idseta_2064 phases=3 wdg=1 bus=678.1.2.3 kv=13.2 kVA=63.0 wdg=2 tap=1.0 bus=x_2064.1.2.3 kv=0.38 kVA=63.0 %imag=0.5 %loadloss=1.5 %noloadloss=0.25 XHL=2.0 conns=[delta, wye, ] ppm_antifloat=0
New Transformer.idseta_2065 phases=3 wdg=1 bus=400.1.2.3 kv=13.2 kVA=10.0 wdg=2 tap=1.0 bus=x_2065.1.2.3 kv=0.38 kVA=10.0 %imag=0.5 %loadloss=1.5 %noloadloss=0.25 XHL=2.0 conns=[delta, wye, ] ppm_antifloat=0
New Transformer.idseta_2073 phases=3 wdg=1 bus=1.1.2.3 kv=13.2 kVA=40.0 wdg=2 tap=1.0 bus=x_2073.1.2.3 kv=0.38 kVA=40.0 %imag=0.5 %loadloss=1.5 %noloadloss=0.25 XHL=2.0 conns=[delta, wye, ] ppm_antifloat=0
New Transformer.idseta_2074 phases=3 wdg=1 bus=1045.1.2.3 kv=13.2 kVA=63.0 wdg=2 tap=1.0 bus=x_2074.1.2.3 kv=0.38 kVA=63.0 %imag=0.5 %loadloss=1.5 %noloadloss=0.25 XHL=2.0 conns=[delta, wye, ] ppm_antifloat=0
New Transformer.idseta_151 phases=3 wdg=1 bus=1591.1.2.3 kv=13.2 kVA=63.0 wdg=2 tap=1.0 bus=x_151.1.2.3 kv=0.38 kVA=63.0 %imag=0.5 %loadloss=1.5 %noloadloss=0.25 XHL=2.0 conns=[delta, wye, ] ppm_antifloat=0
New Transformer.idseta_2286 phases=3 wdg=1 bus=1161.1.2.3 kv=13.2 kVA=100.0 wdg=2 tap=1.0 bus=x_2286.1.2.3 kv=0.38 kVA=100.0 %imag=0.5 %loadloss=1.5 %noloadloss=0.25 XHL=2.0 conns=[delta, wye, ] ppm_antifloat=0
New Transformer.idseta_81 phases=3 wdg=1 bus=1231.1.2.3 kv=13.2 kVA=400.0 wdg=2 tap=1.0 bus=x_81.1.2.3 kv=0.38 kVA=400.0 %imag=0.5 %loadloss=1.5 %noloadloss=0.25 XHL=2.0 conns=[delta, wye, ] ppm_antifloat=0
New Transformer.idseta_82 phases=3 wdg=1 bus=1259.1.2.3 kv=13.2 kVA=315.0 wdg=2 tap=1.0 bus=x_82.1.2.3 kv=0.38 kVA=315.0 %imag=0.5 %loadloss=1.5 %noloadloss=0.25 XHL=2.0 conns=[delta, wye, ] ppm_antifloat=0
New Transformer.idseta_83 phases=3 wdg=1 bus=546.1.2.3 kv=13.2 kVA=315.0 wdg=2 tap=1.0 bus=x_83.1.2.3 kv=0.38 kVA=315.0 %imag=0.5 %loadloss=1.5 %noloadloss=0.25 XHL=2.0 conns=[delta, wye, ] ppm_antifloat=0
New Transformer.idseta_202 phases=3 wdg=1 bus=1515.1.2.3 kv=13.2 kVA=800.0 wdg=2 tap=1.0 bus=x_202.1.2.3 kv=0.38 kVA=800.0 %imag=0.5 %loadloss=1.5 %noloadloss=0.25 XHL=2.0 conns=[delta, wye, ] ppm_antifloat=0
New Transformer.idseta_204 phases=3 wdg=1 bus=148.1.2.3 kv=13.2 kVA=63.0 wdg=2 tap=1.0 bus=x_204.1.2.3 kv=0.38 kVA=63.0 %imag=0.5 %loadloss=1.5 %noloadloss=0.25 XHL=2.0 conns=[delta, wye, ] ppm_antifloat=0
New Transformer.idseta_242 phases=3 wdg=1 bus=716.1.2.3 kv=13.2 kVA=63.0 wdg=2 tap=1.0 bus=x_242.1.2.3 kv=0.38 kVA=63.0 %imag=0.5 %loadloss=1.5 %noloadloss=0.25 XHL=2.0 conns=[delta, wye, ] ppm_antifloat=0
New Transformer.idseta_252 phases=3 wdg=1 bus=1118.1.2.3 kv=13.2 kVA=10.0 wdg=2 tap=1.0 bus=x_252.1.2.3 kv=0.38 kVA=10.0 %imag=0.5 %loadloss=1.5 %noloadloss=0.25 XHL=2.0 conns=[delta, wye, ] ppm_antifloat=0
New Transformer.idseta_335 phases=3 wdg=1 bus=1309.1.2.3 kv=13.2 kVA=315.0 wdg=2 tap=1.0 bus=x_335.1.2.3 kv=0.38 kVA=315.0 %imag=0.5 %loadloss=1.5 %noloadloss=0.25 XHL=2.0 conns=[delta, wye, ] ppm_antifloat=0
New Transformer.idseta_400 phases=3 wdg=1 bus=1176.1.2.3 kv=13.2 kVA=63.0 wdg=2 tap=1.0 bus=x_400.1.2.3 kv=0.38 kVA=63.0 %imag=0.5 %loadloss=1.5 %noloadloss=0.25 XHL=2.0 conns=[delta, wye, ] ppm_antifloat=0
New Transformer.idseta_2377 phases=3 wdg=1 bus=776.1.2.3 kv=13.2 kVA=5.0 wdg=2 tap=1.0 bus=x_2377.1.2.3 kv=0.38 kVA=5.0 %imag=0.5 %loadloss=1.5 %noloadloss=0.25 XHL=2.0 conns=[delta, wye, ] ppm_antifloat=0
New Transformer.idseta_2395 phases=3 wdg=1 bus=130.1.2.3 kv=13.2 kVA=25.0 wdg=2 tap=1.0 bus=x_2395.1.2.3 kv=0.38 kVA=25.0 %imag=0.5 %loadloss=1.5 %noloadloss=0.25 XHL=2.0 conns=[delta, wye, ] ppm_antifloat=0
New Transformer.idseta_2548 phases=3 wdg=1 bus=149.1.2.3 kv=13.2 kVA=5.0 wdg=2 tap=1.0 bus=x_2548.1.2.3 kv=0.38 kVA=5.0 %imag=0.5 %loadloss=1.5 %noloadloss=0.25 XHL=2.0 conns=[delta, wye, ] ppm_antifloat=0
New Transformer.idseta_2644 phases=3 wdg=1 bus=418.1.2.3 kv=13.2 kVA=5.0 wdg=2 tap=1.0 bus=x_2644.1.2.3 kv=0.38 kVA=5.0 %imag=0.5 %loadloss=1.5 %noloadloss=0.25 XHL=2.0 conns=[delta, wye, ] ppm_antifloat=0
New Transformer.idseta_3022 phases=3 wdg=1 bus=1312.1.2.3 kv=13.2 kVA=63.0 wdg=2 tap=1.0 bus=x_3022.1.2.3 kv=0.38 kVA=63.0 %imag=0.5 %loadloss=1.5 %noloadloss=0.25 XHL=2.0 conns=[delta, wye, ] ppm_antifloat=0
New Transformer.idseta_2645 phases=3 wdg=1 bus=638.1.2.3 kv=13.2 kVA=16.0 wdg=2 tap=1.0 bus=x_2645.1.2.3 kv=0.38 kVA=16.0 %imag=0.5 %loadloss=1.5 %noloadloss=0.25 XHL=2.0 conns=[delta, wye, ] ppm_antifloat=0
New Transformer.idseta_2646 phases=3 wdg=1 bus=724.1.2.3 kv=13.2 kVA=16.0 wdg=2 tap=1.0 bus=x_2646.1.2.3 kv=0.38 kVA=16.0 %imag=0.5 %loadloss=1.5 %noloadloss=0.25 XHL=2.0 conns=[delta, wye, ] ppm_antifloat=0
New Transformer.idseta_2660 phases=3 wdg=1 bus=65.1.2.3 kv=13.2 kVA=160.0 wdg=2 tap=1.0 bus=x_2660.1.2.3 kv=0.38 kVA=160.0 %imag=0.5 %loadloss=1.5 %noloadloss=0.25 XHL=2.0 conns=[delta, wye, ] ppm_antifloat=0
New Transformer.idseta_11 phases=3 wdg=1 bus=1648.1.2.3 kv=13.2 kVA=315.0 wdg=2 tap=1.0 bus=x_11.1.2.3 kv=0.38 kVA=315.0 %imag=0.5 %loadloss=1.5 %noloadloss=0.25 XHL=2.0 conns=[delta, wye, ] ppm_antifloat=0
New Transformer.idseta_12 phases=3 wdg=1 bus=1205.1.2.3 kv=13.2 kVA=315.0 wdg=2 tap=1.0 bus=x_12.1.2.3 kv=0.38 kVA=315.0 %imag=0.5 %loadloss=1.5 %noloadloss=0.25 XHL=2.0 conns=[delta, wye, ] ppm_antifloat=0
New Transformer.idseta_13 phases=3 wdg=1 bus=1206.1.2.3 kv=13.2 kVA=315.0 wdg=2 tap=1.0 bus=x_13.1.2.3 kv=0.38 kVA=315.0 %imag=0.5 %loadloss=1.5 %noloadloss=0.25 XHL=2.0 conns=[delta, wye, ] ppm_antifloat=0
New Transformer.idseta_2666 phases=3 wdg=1 bus=1012.1.2.3 kv=13.2 kVA=315.0 wdg=2 tap=1.0 bus=x_2666.1.2.3 kv=0.38 kVA=315.0 %imag=0.5 %loadloss=1.5 %noloadloss=0.25 XHL=2.0 conns=[delta, wye, ] ppm_antifloat=0
New Transformer.idseta_2683 phases=3 wdg=1 bus=1135.1.2.3 kv=13.2 kVA=160.0 wdg=2 tap=1.0 bus=x_2683.1.2.3 kv=0.38 kVA=160.0 %imag=0.5 %loadloss=1.5 %noloadloss=0.25 XHL=2.0 conns=[delta, wye, ] ppm_antifloat=0
New Transformer.idseta_2724 phases=3 wdg=1 bus=627.1.2.3 kv=13.2 kVA=5.0 wdg=2 tap=1.0 bus=x_2724.1.2.3 kv=0.38 kVA=5.0 %imag=0.5 %loadloss=1.5 %noloadloss=0.25 XHL=2.0 conns=[delta, wye, ] ppm_antifloat=0
New Transformer.idseta_2748 phases=3 wdg=1 bus=1102.1.2.3 kv=13.2 kVA=40.0 wdg=2 tap=1.0 bus=x_2748.1.2.3 kv=0.38 kVA=40.0 %imag=0.5 %loadloss=1.5 %noloadloss=0.25 XHL=2.0 conns=[delta, wye, ] ppm_antifloat=0
New Transformer.idseta_2937 phases=3 wdg=1 bus=339.1.2.3 kv=13.2 kVA=630.0 wdg=2 tap=1.0 bus=x_2937.1.2.3 kv=0.38 kVA=630.0 %imag=0.5 %loadloss=1.5 %noloadloss=0.25 XHL=2.0 conns=[delta, wye, ] ppm_antifloat=0
New Transformer.idseta_2950 phases=3 wdg=1 bus=1138.1.2.3 kv=13.2 kVA=63.0 wdg=2 tap=1.0 bus=x_2950.1.2.3 kv=0.38 kVA=63.0 %imag=0.5 %loadloss=1.5 %noloadloss=0.25 XHL=2.0 conns=[delta, wye, ] ppm_antifloat=0
New Transformer.idseta_2951 phases=3 wdg=1 bus=599.1.2.3 kv=13.2 kVA=63.0 wdg=2 tap=1.0 bus=x_2951.1.2.3 kv=0.38 kVA=63.0 %imag=0.5 %loadloss=1.5 %noloadloss=0.25 XHL=2.0 conns=[delta, wye, ] ppm_antifloat=0
New Transformer.idseta_2952 phases=3 wdg=1 bus=673.1.2.3 kv=13.2 kVA=5.0 wdg=2 tap=1.0 bus=x_2952.1.2.3 kv=0.38 kVA=5.0 %imag=0.5 %loadloss=1.5 %noloadloss=0.25 XHL=2.0 conns=[delta, wye, ] ppm_antifloat=0
New Transformer.idseta_2953 phases=3 wdg=1 bus=347.1.2.3 kv=13.2 kVA=25.0 wdg=2 tap=1.0 bus=x_2953.1.2.3 kv=0.38 kVA=25.0 %imag=0.5 %loadloss=1.5 %noloadloss=0.25 XHL=2.0 conns=[delta, wye, ] ppm_antifloat=0
New Transformer.idseta_2954 phases=3 wdg=1 bus=612.1.2.3 kv=13.2 kVA=315.0 wdg=2 tap=1.0 bus=x_2954.1.2.3 kv=0.38 kVA=315.0 %imag=0.5 %loadloss=1.5 %noloadloss=0.25 XHL=2.0 conns=[delta, wye, ] ppm_antifloat=0
New Transformer.idseta_2955 phases=3 wdg=1 bus=583.1.2.3 kv=13.2 kVA=200.0 wdg=2 tap=1.0 bus=x_2955.1.2.3 kv=0.38 kVA=200.0 %imag=0.5 %loadloss=1.5 %noloadloss=0.25 XHL=2.0 conns=[delta, wye, ] ppm_antifloat=0
New Transformer.idseta_2961 phases=3 wdg=1 bus=413.1.2.3 kv=13.2 kVA=40.0 wdg=2 tap=1.0 bus=x_2961.1.2.3 kv=0.38 kVA=40.0 %imag=0.5 %loadloss=1.5 %noloadloss=0.25 XHL=2.0 conns=[delta, wye, ] ppm_antifloat=0
New Transformer.idseta_2963 phases=3 wdg=1 bus=1772.1.2.3 kv=13.2 kVA=16.0 wdg=2 tap=1.0 bus=x_2963.1.2.3 kv=0.38 kVA=16.0 %imag=0.5 %loadloss=1.5 %noloadloss=0.25 XHL=2.0 conns=[delta, wye, ] ppm_antifloat=0
New Transformer.idseta_2964 phases=3 wdg=1 bus=1168.1.2.3 kv=13.2 kVA=63.0 wdg=2 tap=1.0 bus=x_2964.1.2.3 kv=0.38 kVA=63.0 %imag=0.5 %loadloss=1.5 %noloadloss=0.25 XHL=2.0 conns=[delta, wye, ] ppm_antifloat=0
New Transformer.idseta_2968 phases=3 wdg=1 bus=650.1.2.3 kv=13.2 kVA=75.0 wdg=2 tap=1.0 bus=x_2968.1.2.3 kv=0.38 kVA=75.0 %imag=0.5 %loadloss=1.5 %noloadloss=0.25 XHL=2.0 conns=[delta, wye, ] ppm_antifloat=0
New Transformer.idseta_2969 phases=3 wdg=1 bus=604.1.2.3 kv=13.2 kVA=63.0 wdg=2 tap=1.0 bus=x_2969.1.2.3 kv=0.38 kVA=63.0 %imag=0.5 %loadloss=1.5 %noloadloss=0.25 XHL=2.0 conns=[delta, wye, ] ppm_antifloat=0
New Transformer.idseta_2970 phases=3 wdg=1 bus=1054.1.2.3 kv=13.2 kVA=63.0 wdg=2 tap=1.0 bus=x_2970.1.2.3 kv=0.38 kVA=63.0 %imag=0.5 %loadloss=1.5 %noloadloss=0.25 XHL=2.0 conns=[delta, wye, ] ppm_antifloat=0
New Transformer.idseta_2971 phases=3 wdg=1 bus=1056.1.2.3 kv=13.2 kVA=80.0 wdg=2 tap=1.0 bus=x_2971.1.2.3 kv=0.38 kVA=80.0 %imag=0.5 %loadloss=1.5 %noloadloss=0.25 XHL=2.0 conns=[delta, wye, ] ppm_antifloat=0
New Transformer.idseta_2972 phases=3 wdg=1 bus=602.1.2.3 kv=13.2 kVA=63.0 wdg=2 tap=1.0 bus=x_2972.1.2.3 kv=0.38 kVA=63.0 %imag=0.5 %loadloss=1.5 %noloadloss=0.25 XHL=2.0 conns=[delta, wye, ] ppm_antifloat=0
New Transformer.idseta_2975 phases=3 wdg=1 bus=1150.1.2.3 kv=13.2 kVA=160.0 wdg=2 tap=1.0 bus=x_2975.1.2.3 kv=0.38 kVA=160.0 %imag=0.5 %loadloss=1.5 %noloadloss=0.25 XHL=2.0 conns=[delta, wye, ] ppm_antifloat=0
New Transformer.idseta_146 phases=3 wdg=1 bus=1789.1.2.3 kv=13.2 kVA=63.0 wdg=2 tap=1.0 bus=x_146.1.2.3 kv=0.38 kVA=63.0 %imag=0.5 %loadloss=1.5 %noloadloss=0.25 XHL=2.0 conns=[delta, wye, ] ppm_antifloat=0
New Transformer.idseta_152 phases=3 wdg=1 bus=1576.1.2.3 kv=13.2 kVA=80.0 wdg=2 tap=1.0 bus=x_152.1.2.3 kv=0.38 kVA=80.0 %imag=0.5 %loadloss=1.5 %noloadloss=0.25 XHL=2.0 conns=[delta, wye, ] ppm_antifloat=0
New Transformer.idseta_19 phases=3 wdg=1 bus=1305.1.2.3 kv=13.2 kVA=40.0 wdg=2 tap=1.0 bus=x_19.1.2.3 kv=0.38 kVA=40.0 %imag=0.5 %loadloss=1.5 %noloadloss=0.25 XHL=2.0 conns=[delta, wye, ] ppm_antifloat=0
New Transformer.idseta_21 phases=3 wdg=1 bus=345.1.2.3 kv=13.2 kVA=63.0 wdg=2 tap=1.0 bus=x_21.1.2.3 kv=0.38 kVA=63.0 %imag=0.5 %loadloss=1.5 %noloadloss=0.25 XHL=2.0 conns=[delta, wye, ] ppm_antifloat=0
New Transformer.idseta_24 phases=3 wdg=1 bus=358.1.2.3 kv=13.2 kVA=200.0 wdg=2 tap=1.0 bus=x_24.1.2.3 kv=0.38 kVA=200.0 %imag=0.5 %loadloss=1.5 %noloadloss=0.25 XHL=2.0 conns=[delta, wye, ] ppm_antifloat=0
New Transformer.idseta_25 phases=3 wdg=1 bus=1307.1.2.3 kv=13.2 kVA=25.0 wdg=2 tap=1.0 bus=x_25.1.2.3 kv=0.38 kVA=25.0 %imag=0.5 %loadloss=1.5 %noloadloss=0.25 XHL=2.0 conns=[delta, wye, ] ppm_antifloat=0
New Transformer.idseta_27 phases=3 wdg=1 bus=1335.1.2.3 kv=13.2 kVA=80.0 wdg=2 tap=1.0 bus=x_27.1.2.3 kv=0.38 kVA=80.0 %imag=0.5 %loadloss=1.5 %noloadloss=0.25 XHL=2.0 conns=[delta, wye, ] ppm_antifloat=0
New Transformer.idseta_60 phases=3 wdg=1 bus=1255.1.2.3 kv=13.2 kVA=200.0 wdg=2 tap=1.0 bus=x_60.1.2.3 kv=0.38 kVA=200.0 %imag=0.5 %loadloss=1.5 %noloadloss=0.25 XHL=2.0 conns=[delta, wye, ] ppm_antifloat=0
New Transformer.idseta_378 phases=3 wdg=1 bus=272.1.2.3 kv=13.2 kVA=160.0 wdg=2 tap=1.0 bus=x_378.1.2.3 kv=0.38 kVA=160.0 %imag=0.5 %loadloss=1.5 %noloadloss=0.25 XHL=2.0 conns=[delta, wye, ] ppm_antifloat=0
New Transformer.idseta_401 phases=3 wdg=1 bus=1148.1.2.3 kv=13.2 kVA=16.0 wdg=2 tap=1.0 bus=x_401.1.2.3 kv=0.38 kVA=16.0 %imag=0.5 %loadloss=1.5 %noloadloss=0.25 XHL=2.0 conns=[delta, wye, ] ppm_antifloat=0
New Transformer.idseta_2977 phases=3 wdg=1 bus=998.1.2.3 kv=13.2 kVA=63.0 wdg=2 tap=1.0 bus=x_2977.1.2.3 kv=0.38 kVA=63.0 %imag=0.5 %loadloss=1.5 %noloadloss=0.25 XHL=2.0 conns=[delta, wye, ] ppm_antifloat=0
New Transformer.idseta_2978 phases=3 wdg=1 bus=630.1.2.3 kv=13.2 kVA=80.0 wdg=2 tap=1.0 bus=x_2978.1.2.3 kv=0.38 kVA=80.0 %imag=0.5 %loadloss=1.5 %noloadloss=0.25 XHL=2.0 conns=[delta, wye, ] ppm_antifloat=0
New Transformer.idseta_2979 phases=3 wdg=1 bus=593.1.2.3 kv=13.2 kVA=100.0 wdg=2 tap=1.0 bus=x_2979.1.2.3 kv=0.38 kVA=100.0 %imag=0.5 %loadloss=1.5 %noloadloss=0.25 XHL=2.0 conns=[delta, wye, ] ppm_antifloat=0
New Transformer.idseta_2981 phases=3 wdg=1 bus=95.1.2.3 kv=13.2 kVA=40.0 wdg=2 tap=1.0 bus=x_2981.1.2.3 kv=0.38 kVA=40.0 %imag=0.5 %loadloss=1.5 %noloadloss=0.25 XHL=2.0 conns=[delta, wye, ] ppm_antifloat=0
New Transformer.idseta_2983 phases=3 wdg=1 bus=500.1.2.3 kv=13.2 kVA=630.0 wdg=2 tap=1.0 bus=busmt_500.1.2.3 kv=33.0 kVA=630.0 %imag=0.5 %loadloss=1.5 %noloadloss=0.25 XHL=2.0 conns=[delta, delta, ] ppm_antifloat=1
New Transformer.idseta_2984 phases=3 wdg=1 bus=1173.1.2.3 kv=13.2 kVA=500.0 wdg=2 tap=1.0 bus=x_2984.1.2.3 kv=0.38 kVA=500.0 %imag=0.5 %loadloss=1.5 %noloadloss=0.25 XHL=2.0 conns=[delta, wye, ] ppm_antifloat=0
New Transformer.idseta_2987 phases=3 wdg=1 bus=1592.1.2.3 kv=13.2 kVA=25.0 wdg=2 tap=1.0 bus=x_2987.1.2.3 kv=0.38 kVA=25.0 %imag=0.5 %loadloss=1.5 %noloadloss=0.25 XHL=2.0 conns=[delta, wye, ] ppm_antifloat=0
New Transformer.idseta_2993 phases=3 wdg=1 bus=660.1.2.3 kv=13.2 kVA=5.0 wdg=2 tap=1.0 bus=x_2993.1.2.3 kv=0.38 kVA=5.0 %imag=0.5 %loadloss=1.5 %noloadloss=0.25 XHL=2.0 conns=[delta, wye, ] ppm_antifloat=0
New Transformer.idseta_2996 phases=3 wdg=1 bus=616.1.2.3 kv=13.2 kVA=315.0 wdg=2 tap=1.0 bus=x_2996.1.2.3 kv=0.38 kVA=315.0 %imag=0.5 %loadloss=1.5 %noloadloss=0.25 XHL=2.0 conns=[delta, wye, ] ppm_antifloat=0
New Transformer.idseta_2997 phases=3 wdg=1 bus=1579.1.2.3 kv=13.2 kVA=100.0 wdg=2 tap=1.0 bus=x_2997.1.2.3 kv=0.38 kVA=100.0 %imag=0.5 %loadloss=1.5 %noloadloss=0.25 XHL=2.0 conns=[delta, wye, ] ppm_antifloat=0
New Transformer.idseta_2999 phases=3 wdg=1 bus=703.1.2.3 kv=13.2 kVA=25.0 wdg=2 tap=1.0 bus=x_2999.1.2.3 kv=0.38 kVA=25.0 %imag=0.5 %loadloss=1.5 %noloadloss=0.25 XHL=2.0 conns=[delta, wye, ] ppm_antifloat=0
New Transformer.idseta_33 phases=3 wdg=1 bus=1336.1.2.3 kv=13.2 kVA=160.0 wdg=2 tap=1.0 bus=x_33.1.2.3 kv=0.38 kVA=160.0 %imag=0.5 %loadloss=1.5 %noloadloss=0.25 XHL=2.0 conns=[delta, wye, ] ppm_antifloat=0
New Transformer.idseta_45 phases=3 wdg=1 bus=397.1.2.3 kv=13.2 kVA=400.0 wdg=2 tap=1.0 bus=x_45.1.2.3 kv=0.38 kVA=400.0 %imag=0.5 %loadloss=1.5 %noloadloss=0.25 XHL=2.0 conns=[delta, wye, ] ppm_antifloat=0
New Transformer.idseta_47 phases=3 wdg=1 bus=383.1.2.3 kv=13.2 kVA=100.0 wdg=2 tap=1.0 bus=x_47.1.2.3 kv=0.38 kVA=100.0 %imag=0.5 %loadloss=1.5 %noloadloss=0.25 XHL=2.0 conns=[delta, wye, ] ppm_antifloat=0
New Transformer.idseta_3000 phases=3 wdg=1 bus=360.1.2.3 kv=13.2 kVA=40.0 wdg=2 tap=1.0 bus=x_3000.1.2.3 kv=0.38 kVA=40.0 %imag=0.5 %loadloss=1.5 %noloadloss=0.25 XHL=2.0 conns=[delta, wye, ] ppm_antifloat=0
New Transformer.idseta_3001 phases=3 wdg=1 bus=128.1.2.3 kv=13.2 kVA=80.0 wdg=2 tap=1.0 bus=x_3001.1.2.3 kv=0.38 kVA=80.0 %imag=0.5 %loadloss=1.5 %noloadloss=0.25 XHL=2.0 conns=[delta, wye, ] ppm_antifloat=0
New Transformer.idseta_3002 phases=3 wdg=1 bus=138.1.2.3 kv=13.2 kVA=63.0 wdg=2 tap=1.0 bus=x_3002.1.2.3 kv=0.38 kVA=63.0 %imag=0.5 %loadloss=1.5 %noloadloss=0.25 XHL=2.0 conns=[delta, wye, ] ppm_antifloat=0
New Transformer.idseta_3003 phases=3 wdg=1 bus=1316.1.2.3 kv=13.2 kVA=160.0 wdg=2 tap=1.0 bus=x_3003.1.2.3 kv=0.38 kVA=160.0 %imag=0.5 %loadloss=1.5 %noloadloss=0.25 XHL=2.0 conns=[delta, wye, ] ppm_antifloat=0
New Transformer.idseta_3006 phases=3 wdg=1 bus=1291.1.2.3 kv=13.2 kVA=200.0 wdg=2 tap=1.0 bus=x_3006.1.2.3 kv=0.38 kVA=200.0 %imag=0.5 %loadloss=1.5 %noloadloss=0.25 XHL=2.0 conns=[delta, wye, ] ppm_antifloat=0
New Transformer.idseta_3009 phases=3 wdg=1 bus=209.1.2.3 kv=13.2 kVA=315.0 wdg=2 tap=1.0 bus=x_3009.1.2.3 kv=0.38 kVA=315.0 %imag=0.5 %loadloss=1.5 %noloadloss=0.25 XHL=2.0 conns=[delta, wye, ] ppm_antifloat=0
New Transformer.idseta_3010 phases=3 wdg=1 bus=728.1.2.3 kv=13.2 kVA=25.0 wdg=2 tap=1.0 bus=x_3010.1.2.3 kv=0.38 kVA=25.0 %imag=0.5 %loadloss=1.5 %noloadloss=0.25 XHL=2.0 conns=[delta, wye, ] ppm_antifloat=0
New Transformer.idseta_3011 phases=3 wdg=1 bus=63.1.2.3 kv=13.2 kVA=40.0 wdg=2 tap=1.0 bus=x_3011.1.2.3 kv=0.38 kVA=40.0 %imag=0.5 %loadloss=1.5 %noloadloss=0.25 XHL=2.0 conns=[delta, wye, ] ppm_antifloat=0
New Transformer.idseta_3012 phases=3 wdg=1 bus=1273.1.2.3 kv=13.2 kVA=125.0 wdg=2 tap=1.0 bus=x_3012.1.2.3 kv=0.38 kVA=125.0 %imag=0.5 %loadloss=1.5 %noloadloss=0.25 XHL=2.0 conns=[delta, wye, ] ppm_antifloat=0
New Transformer.idseta_3013 phases=3 wdg=1 bus=1029.1.2.3 kv=13.2 kVA=160.0 wdg=2 tap=1.0 bus=x_3013.1.2.3 kv=0.38 kVA=160.0 %imag=0.5 %loadloss=1.5 %noloadloss=0.25 XHL=2.0 conns=[delta, wye, ] ppm_antifloat=0
New Transformer.idseta_3014 phases=3 wdg=1 bus=1074.1.2.3 kv=13.2 kVA=40.0 wdg=2 tap=1.0 bus=x_3014.1.2.3 kv=0.38 kVA=40.0 %imag=0.5 %loadloss=1.5 %noloadloss=0.25 XHL=2.0 conns=[delta, wye, ] ppm_antifloat=0
New Transformer.idseta_3015 phases=3 wdg=1 bus=1599.1.2.3 kv=13.2 kVA=63.0 wdg=2 tap=1.0 bus=x_3015.1.2.3 kv=0.38 kVA=63.0 %imag=0.5 %loadloss=1.5 %noloadloss=0.25 XHL=2.0 conns=[delta, wye, ] ppm_antifloat=0
New Transformer.idseta_3016 phases=3 wdg=1 bus=1099.1.2.3 kv=13.2 kVA=100.0 wdg=2 tap=1.0 bus=x_3016.1.2.3 kv=0.38 kVA=100.0 %imag=0.5 %loadloss=1.5 %noloadloss=0.25 XHL=2.0 conns=[delta, wye, ] ppm_antifloat=0
New Transformer.idseta_3017 phases=3 wdg=1 bus=1318.1.2.3 kv=13.2 kVA=100.0 wdg=2 tap=1.0 bus=x_3017.1.2.3 kv=0.38 kVA=100.0 %imag=0.5 %loadloss=1.5 %noloadloss=0.25 XHL=2.0 conns=[delta, wye, ] ppm_antifloat=0
New Transformer.idseta_3019 phases=3 wdg=1 bus=304.1.2.3 kv=13.2 kVA=40.0 wdg=2 tap=1.0 bus=x_3019.1.2.3 kv=0.38 kVA=40.0 %imag=0.5 %loadloss=1.5 %noloadloss=0.25 XHL=2.0 conns=[delta, wye, ] ppm_antifloat=0
New Transformer.idseta_3020 phases=3 wdg=1 bus=1066.1.2.3 kv=13.2 kVA=63.0 wdg=2 tap=1.0 bus=x_3020.1.2.3 kv=0.38 kVA=63.0 %imag=0.5 %loadloss=1.5 %noloadloss=0.25 XHL=2.0 conns=[delta, wye, ] ppm_antifloat=0
New Transformer.idseta_3021 phases=3 wdg=1 bus=308.1.2.3 kv=13.2 kVA=315.0 wdg=2 tap=1.0 bus=x_3021.1.2.3 kv=0.38 kVA=315.0 %imag=0.5 %loadloss=1.5 %noloadloss=0.25 XHL=2.0 conns=[delta, wye, ] ppm_antifloat=0
New Transformer.idseta_3117 phases=3 wdg=1 bus=1086.1.2.3 kv=13.2 kVA=80.0 wdg=2 tap=1.0 bus=x_3117.1.2.3 kv=0.38 kVA=80.0 %imag=0.5 %loadloss=1.5 %noloadloss=0.25 XHL=2.0 conns=[delta, wye, ] ppm_antifloat=0
New Transformer.idseta_5001 phases=3 wdg=1 bus=1438.1.2.3 kv=33.0 kVA=25.0 wdg=2 tap=1.0 bus=x_5001.1.2.3 kv=0.38 kVA=25.0 %imag=0.5 %loadloss=1.5 %noloadloss=0.25 XHL=2.0 conns=[delta, wye, ] ppm_antifloat=0
New Transformer.idseta_5002 phases=3 wdg=1 bus=1442.1.2.3 kv=33.0 kVA=16.0 wdg=2 tap=1.0 bus=x_5002.1.2.3 kv=0.38 kVA=16.0 %imag=0.5 %loadloss=1.5 %noloadloss=0.25 XHL=2.0 conns=[delta, wye, ] ppm_antifloat=0
New Transformer.idseta_5007 phases=3 wdg=1 bus=515.1.2.3 kv=33.0 kVA=5.0 wdg=2 tap=1.0 bus=x_5007.1.2.3 kv=0.38 kVA=5.0 %imag=0.5 %loadloss=1.5 %noloadloss=0.25 XHL=2.0 conns=[delta, wye, ] ppm_antifloat=0
New Transformer.idseta_48 phases=3 wdg=1 bus=1606.1.2.3 kv=13.2 kVA=200.0 wdg=2 tap=1.0 bus=x_48.1.2.3 kv=0.38 kVA=200.0 %imag=0.5 %loadloss=1.5 %noloadloss=0.25 XHL=2.0 conns=[delta, wye, ] ppm_antifloat=0
New Transformer.idseta_49 phases=3 wdg=1 bus=1267.1.2.3 kv=13.2 kVA=315.0 wdg=2 tap=1.0 bus=x_49.1.2.3 kv=0.38 kVA=315.0 %imag=0.5 %loadloss=1.5 %noloadloss=0.25 XHL=2.0 conns=[delta, wye, ] ppm_antifloat=0
New Transformer.idseta_52 phases=3 wdg=1 bus=317.1.2.3 kv=13.2 kVA=315.0 wdg=2 tap=1.0 bus=x_52.1.2.3 kv=0.38 kVA=315.0 %imag=0.5 %loadloss=1.5 %noloadloss=0.25 XHL=2.0 conns=[delta, wye, ] ppm_antifloat=0
New Transformer.idseta_53 phases=3 wdg=1 bus=1270.1.2.3 kv=13.2 kVA=200.0 wdg=2 tap=1.0 bus=x_53.1.2.3 kv=0.38 kVA=200.0 %imag=0.5 %loadloss=1.5 %noloadloss=0.25 XHL=2.0 conns=[delta, wye, ] ppm_antifloat=0
New Transformer.idseta_54 phases=3 wdg=1 bus=1547.1.2.3 kv=13.2 kVA=315.0 wdg=2 tap=1.0 bus=x_54.1.2.3 kv=0.38 kVA=315.0 %imag=0.5 %loadloss=1.5 %noloadloss=0.25 XHL=2.0 conns=[delta, wye, ] ppm_antifloat=0
New Transformer.idseta_55 phases=3 wdg=1 bus=260.1.2.3 kv=13.2 kVA=315.0 wdg=2 tap=1.0 bus=x_55.1.2.3 kv=0.38 kVA=315.0 %imag=0.5 %loadloss=1.5 %noloadloss=0.25 XHL=2.0 conns=[delta, wye, ] ppm_antifloat=0
New Transformer.idseta_56 phases=3 wdg=1 bus=1262.1.2.3 kv=13.2 kVA=315.0 wdg=2 tap=1.0 bus=x_56.1.2.3 kv=0.38 kVA=315.0 %imag=0.5 %loadloss=1.5 %noloadloss=0.25 XHL=2.0 conns=[delta, wye, ] ppm_antifloat=0
New Transformer.idseta_5008 phases=3 wdg=1 bus=1490.1.2.3 kv=33.0 kVA=25.0 wdg=2 tap=1.0 bus=x_5008.1.2.3 kv=0.38 kVA=25.0 %imag=0.5 %loadloss=1.5 %noloadloss=0.25 XHL=2.0 conns=[delta, wye, ] ppm_antifloat=0
New Transformer.idseta_5009 phases=3 wdg=1 bus=539.1.2.3 kv=33.0 kVA=63.0 wdg=2 tap=1.0 bus=x_5009.1.2.3 kv=0.38 kVA=63.0 %imag=0.5 %loadloss=1.5 %noloadloss=0.25 XHL=2.0 conns=[delta, wye, ] ppm_antifloat=0
New Transformer.idseta_5012 phases=3 wdg=1 bus=480.1.2.3 kv=13.2 kVA=5.0 wdg=2 tap=1.0 bus=x_5012.1.2.3 kv=0.38 kVA=5.0 %imag=0.5 %loadloss=1.5 %noloadloss=0.25 XHL=2.0 conns=[delta, wye, ] ppm_antifloat=0
New Transformer.idseta_5013 phases=3 wdg=1 bus=893.1.2.3 kv=13.2 kVA=10.0 wdg=2 tap=1.0 bus=x_5013.1.2.3 kv=0.38 kVA=10.0 %imag=0.5 %loadloss=1.5 %noloadloss=0.25 XHL=2.0 conns=[delta, wye, ] ppm_antifloat=0
New Transformer.idseta_5014 phases=3 wdg=1 bus=547.1.2.3 kv=33.0 kVA=80.0 wdg=2 tap=1.0 bus=busmt_547.1.2.3 kv=13.2 kVA=80.0 %imag=0.5 %loadloss=1.5 %noloadloss=0.25 XHL=2.0 conns=[delta, delta, ] ppm_antifloat=1
New Transformer.idseta_5015 phases=3 wdg=1 bus=896.1.2.3 kv=13.2 kVA=100.0 wdg=2 tap=1.0 bus=x_5015.1.2.3 kv=0.38 kVA=100.0 %imag=0.5 %loadloss=1.5 %noloadloss=0.25 XHL=2.0 conns=[delta, wye, ] ppm_antifloat=0
New Transformer.idseta_5016 phases=3 wdg=1 bus=892.1.2.3 kv=13.2 kVA=10.0 wdg=2 tap=1.0 bus=x_5016.1.2.3 kv=0.38 kVA=10.0 %imag=0.5 %loadloss=1.5 %noloadloss=0.25 XHL=2.0 conns=[delta, wye, ] ppm_antifloat=0
New Transformer.idseta_5017 phases=3 wdg=1 bus=489.1.2.3 kv=13.2 kVA=5.0 wdg=2 tap=1.0 bus=x_5017.1.2.3 kv=0.38 kVA=5.0 %imag=0.5 %loadloss=1.5 %noloadloss=0.25 XHL=2.0 conns=[delta, wye, ] ppm_antifloat=0
New Transformer.idseta_5018 phases=3 wdg=1 bus=885.1.2.3 kv=13.2 kVA=5.0 wdg=2 tap=1.0 bus=x_5018.1.2.3 kv=0.38 kVA=5.0 %imag=0.5 %loadloss=1.5 %noloadloss=0.25 XHL=2.0 conns=[delta, wye, ] ppm_antifloat=0
New Transformer.idseta_5019 phases=3 wdg=1 bus=479.1.2.3 kv=13.2 kVA=63.0 wdg=2 tap=1.0 bus=x_5019.1.2.3 kv=0.38 kVA=63.0 %imag=0.5 %loadloss=1.5 %noloadloss=0.25 XHL=2.0 conns=[delta, wye, ] ppm_antifloat=0
New Transformer.idseta_5025 phases=3 wdg=1 bus=872.1.2.3 kv=13.2 kVA=16.0 wdg=2 tap=1.0 bus=x_5025.1.2.3 kv=0.38 kVA=16.0 %imag=0.5 %loadloss=1.5 %noloadloss=0.25 XHL=2.0 conns=[delta, wye, ] ppm_antifloat=0
New Transformer.idseta_5026 phases=3 wdg=1 bus=1427.1.2.3 kv=33.0 kVA=16.0 wdg=2 tap=1.0 bus=x_5026.1.2.3 kv=0.38 kVA=16.0 %imag=0.5 %loadloss=1.5 %noloadloss=0.25 XHL=2.0 conns=[delta, wye, ] ppm_antifloat=0
New Transformer.idseta_5027 phases=3 wdg=1 bus=880.1.2.3 kv=13.2 kVA=10.0 wdg=2 tap=1.0 bus=x_5027.1.2.3 kv=0.38 kVA=10.0 %imag=0.5 %loadloss=1.5 %noloadloss=0.25 XHL=2.0 conns=[delta, wye, ] ppm_antifloat=0
New Transformer.idseta_5028 phases=3 wdg=1 bus=488.1.2.3 kv=13.2 kVA=5.0 wdg=2 tap=1.0 bus=x_5028.1.2.3 kv=0.38 kVA=5.0 %imag=0.5 %loadloss=1.5 %noloadloss=0.25 XHL=2.0 conns=[delta, wye, ] ppm_antifloat=0
New Transformer.idseta_57 phases=3 wdg=1 bus=1225.1.2.3 kv=13.2 kVA=315.0 wdg=2 tap=1.0 bus=x_57.1.2.3 kv=0.38 kVA=315.0 %imag=0.5 %loadloss=1.5 %noloadloss=0.25 XHL=2.0 conns=[delta, wye, ] ppm_antifloat=0
New Transformer.idseta_59 phases=3 wdg=1 bus=1256.1.2.3 kv=13.2 kVA=315.0 wdg=2 tap=1.0 bus=x_59.1.2.3 kv=0.38 kVA=315.0 %imag=0.5 %loadloss=1.5 %noloadloss=0.25 XHL=2.0 conns=[delta, wye, ] ppm_antifloat=0
New Transformer.idseta_61 phases=3 wdg=1 bus=1242.1.2.3 kv=13.2 kVA=250.0 wdg=2 tap=1.0 bus=x_61.1.2.3 kv=0.38 kVA=250.0 %imag=0.5 %loadloss=1.5 %noloadloss=0.25 XHL=2.0 conns=[delta, wye, ] ppm_antifloat=0
New Transformer.idseta_71 phases=3 wdg=1 bus=1207.1.2.3 kv=13.2 kVA=200.0 wdg=2 tap=1.0 bus=x_71.1.2.3 kv=0.38 kVA=200.0 %imag=0.5 %loadloss=1.5 %noloadloss=0.25 XHL=2.0 conns=[delta, wye, ] ppm_antifloat=0
New Transformer.idseta_72 phases=3 wdg=1 bus=329.1.2.3 kv=13.2 kVA=200.0 wdg=2 tap=1.0 bus=x_72.1.2.3 kv=0.38 kVA=200.0 %imag=0.5 %loadloss=1.5 %noloadloss=0.25 XHL=2.0 conns=[delta, wye, ] ppm_antifloat=0
New Transformer.idseta_75 phases=3 wdg=1 bus=1200.1.2.3 kv=13.2 kVA=100.0 wdg=2 tap=1.0 bus=x_75.1.2.3 kv=0.38 kVA=100.0 %imag=0.5 %loadloss=1.5 %noloadloss=0.25 XHL=2.0 conns=[delta, wye, ] ppm_antifloat=0
New Transformer.idseta_76 phases=3 wdg=1 bus=1218.1.2.3 kv=13.2 kVA=315.0 wdg=2 tap=1.0 bus=x_76.1.2.3 kv=0.38 kVA=315.0 %imag=0.5 %loadloss=1.5 %noloadloss=0.25 XHL=2.0 conns=[delta, wye, ] ppm_antifloat=0
New Transformer.idseta_77 phases=3 wdg=1 bus=197.1.2.3 kv=13.2 kVA=200.0 wdg=2 tap=1.0 bus=x_77.1.2.3 kv=0.38 kVA=200.0 %imag=0.5 %loadloss=1.5 %noloadloss=0.25 XHL=2.0 conns=[delta, wye, ] ppm_antifloat=0
New Transformer.idseta_78 phases=3 wdg=1 bus=1271.1.2.3 kv=13.2 kVA=200.0 wdg=2 tap=1.0 bus=x_78.1.2.3 kv=0.38 kVA=200.0 %imag=0.5 %loadloss=1.5 %noloadloss=0.25 XHL=2.0 conns=[delta, wye, ] ppm_antifloat=0
New Transformer.idseta_433 phases=3 wdg=1 bus=1004.1.2.3 kv=13.2 kVA=100.0 wdg=2 tap=1.0 bus=x_433.1.2.3 kv=0.38 kVA=100.0 %imag=0.5 %loadloss=1.5 %noloadloss=0.25 XHL=2.0 conns=[delta, wye, ] ppm_antifloat=0
New Transformer.idseta_439 phases=3 wdg=1 bus=1587.1.2.3 kv=13.2 kVA=63.0 wdg=2 tap=1.0 bus=x_439.1.2.3 kv=0.38 kVA=63.0 %imag=0.5 %loadloss=1.5 %noloadloss=0.25 XHL=2.0 conns=[delta, wye, ] ppm_antifloat=0
New Transformer.idseta_505 phases=3 wdg=1 bus=1308.1.2.3 kv=13.2 kVA=250.0 wdg=2 tap=1.0 bus=x_505.1.2.3 kv=0.38 kVA=250.0 %imag=0.5 %loadloss=1.5 %noloadloss=0.25 XHL=2.0 conns=[delta, wye, ] ppm_antifloat=0
New Transformer.idseta_520 phases=3 wdg=1 bus=398.1.2.3 kv=13.2 kVA=100.0 wdg=2 tap=1.0 bus=x_520.1.2.3 kv=0.38 kVA=100.0 %imag=0.5 %loadloss=1.5 %noloadloss=0.25 XHL=2.0 conns=[delta, wye, ] ppm_antifloat=0
New Transformer.idseta_523 phases=3 wdg=1 bus=1183.1.2.3 kv=13.2 kVA=75.0 wdg=2 tap=1.0 bus=x_523.1.2.3 kv=0.38 kVA=75.0 %imag=0.5 %loadloss=1.5 %noloadloss=0.25 XHL=2.0 conns=[delta, wye, ] ppm_antifloat=0
New Transformer.idseta_524 phases=3 wdg=1 bus=11.1.2.3 kv=13.2 kVA=63.0 wdg=2 tap=1.0 bus=x_524.1.2.3 kv=0.38 kVA=63.0 %imag=0.5 %loadloss=1.5 %noloadloss=0.25 XHL=2.0 conns=[delta, wye, ] ppm_antifloat=0
New Transformer.idseta_527 phases=3 wdg=1 bus=1508.1.2.3 kv=13.2 kVA=100.0 wdg=2 tap=1.0 bus=x_527.1.2.3 kv=0.38 kVA=100.0 %imag=0.5 %loadloss=1.5 %noloadloss=0.25 XHL=2.0 conns=[delta, wye, ] ppm_antifloat=0
New Transformer.idseta_833 phases=3 wdg=1 bus=1182.1.2.3 kv=13.2 kVA=80.0 wdg=2 tap=1.0 bus=x_833.1.2.3 kv=0.38 kVA=80.0 %imag=0.5 %loadloss=1.5 %noloadloss=0.25 XHL=2.0 conns=[delta, wye, ] ppm_antifloat=0
New Transformer.idseta_835 phases=3 wdg=1 bus=577.1.2.3 kv=13.2 kVA=160.0 wdg=2 tap=1.0 bus=x_835.1.2.3 kv=0.38 kVA=160.0 %imag=0.5 %loadloss=1.5 %noloadloss=0.25 XHL=2.0 conns=[delta, wye, ] ppm_antifloat=0
New Transformer.idseta_840 phases=3 wdg=1 bus=1189.1.2.3 kv=13.2 kVA=160.0 wdg=2 tap=1.0 bus=x_840.1.2.3 kv=0.38 kVA=160.0 %imag=0.5 %loadloss=1.5 %noloadloss=0.25 XHL=2.0 conns=[delta, wye, ] ppm_antifloat=0
New Transformer.idseta_859 phases=3 wdg=1 bus=1034.1.2.3 kv=13.2 kVA=63.0 wdg=2 tap=1.0 bus=x_859.1.2.3 kv=0.38 kVA=63.0 %imag=0.5 %loadloss=1.5 %noloadloss=0.25 XHL=2.0 conns=[delta, wye, ] ppm_antifloat=0
New Transformer.idseta_956 phases=3 wdg=1 bus=641.1.2.3 kv=13.2 kVA=63.0 wdg=2 tap=1.0 bus=x_956.1.2.3 kv=0.38 kVA=63.0 %imag=0.5 %loadloss=1.5 %noloadloss=0.25 XHL=2.0 conns=[delta, wye, ] ppm_antifloat=0
New Transformer.idseta_957 phases=3 wdg=1 bus=640.1.2.3 kv=13.2 kVA=40.0 wdg=2 tap=1.0 bus=x_957.1.2.3 kv=0.38 kVA=40.0 %imag=0.5 %loadloss=1.5 %noloadloss=0.25 XHL=2.0 conns=[delta, wye, ] ppm_antifloat=0
New Transformer.idseta_958 phases=3 wdg=1 bus=684.1.2.3 kv=13.2 kVA=80.0 wdg=2 tap=1.0 bus=x_958.1.2.3 kv=0.38 kVA=80.0 %imag=0.5 %loadloss=1.5 %noloadloss=0.25 XHL=2.0 conns=[delta, wye, ] ppm_antifloat=0
New Transformer.idseta_1067 phases=3 wdg=1 bus=726.1.2.3 kv=13.2 kVA=100.0 wdg=2 tap=1.0 bus=x_1067.1.2.3 kv=0.38 kVA=100.0 %imag=0.5 %loadloss=1.5 %noloadloss=0.25 XHL=2.0 conns=[delta, wye, ] ppm_antifloat=0
New Transformer.idseta_1106 phases=3 wdg=1 bus=1137.1.2.3 kv=13.2 kVA=100.0 wdg=2 tap=1.0 bus=x_1106.1.2.3 kv=0.38 kVA=100.0 %imag=0.5 %loadloss=1.5 %noloadloss=0.25 XHL=2.0 conns=[delta, wye, ] ppm_antifloat=0
New Transformer.idseta_1231 phases=3 wdg=1 bus=1145.1.2.3 kv=13.2 kVA=5.0 wdg=2 tap=1.0 bus=x_1231.1.2.3 kv=0.38 kVA=5.0 %imag=0.5 %loadloss=1.5 %noloadloss=0.25 XHL=2.0 conns=[delta, wye, ] ppm_antifloat=0
New Transformer.idseta_1355 phases=3 wdg=1 bus=1128.1.2.3 kv=13.2 kVA=80.0 wdg=2 tap=1.0 bus=x_1355.1.2.3 kv=0.38 kVA=80.0 %imag=0.5 %loadloss=1.5 %noloadloss=0.25 XHL=2.0 conns=[delta, wye, ] ppm_antifloat=0
New Transformer.idseta_1357 phases=3 wdg=1 bus=659.1.2.3 kv=13.2 kVA=5.0 wdg=2 tap=1.0 bus=x_1357.1.2.3 kv=0.38 kVA=5.0 %imag=0.5 %loadloss=1.5 %noloadloss=0.25 XHL=2.0 conns=[delta, wye, ] ppm_antifloat=0
New Transformer.idseta_1374 phases=3 wdg=1 bus=49.1.2.3 kv=13.2 kVA=100.0 wdg=2 tap=1.0 bus=x_1374.1.2.3 kv=0.38 kVA=100.0 %imag=0.5 %loadloss=1.5 %noloadloss=0.25 XHL=2.0 conns=[delta, wye, ] ppm_antifloat=0
New Transformer.idseta_1382 phases=3 wdg=1 bus=656.1.2.3 kv=13.2 kVA=40.0 wdg=2 tap=1.0 bus=x_1382.1.2.3 kv=0.38 kVA=40.0 %imag=0.5 %loadloss=1.5 %noloadloss=0.25 XHL=2.0 conns=[delta, wye, ] ppm_antifloat=0
New Transformer.idseta_1488 phases=3 wdg=1 bus=717.1.2.3 kv=13.2 kVA=80.0 wdg=2 tap=1.0 bus=x_1488.1.2.3 kv=0.38 kVA=80.0 %imag=0.5 %loadloss=1.5 %noloadloss=0.25 XHL=2.0 conns=[delta, wye, ] ppm_antifloat=0
New Transformer.idseta_1649 phases=3 wdg=1 bus=706.1.2.3 kv=13.2 kVA=5.0 wdg=2 tap=1.0 bus=x_1649.1.2.3 kv=0.38 kVA=5.0 %imag=0.5 %loadloss=1.5 %noloadloss=0.25 XHL=2.0 conns=[delta, wye, ] ppm_antifloat=0
New Transformer.idseta_1759 phases=3 wdg=1 bus=729.1.2.3 kv=13.2 kVA=63.0 wdg=2 tap=1.0 bus=x_1759.1.2.3 kv=0.38 kVA=63.0 %imag=0.5 %loadloss=1.5 %noloadloss=0.25 XHL=2.0 conns=[delta, wye, ] ppm_antifloat=0
New Transformer.idseta_1874 phases=3 wdg=1 bus=1052.1.2.3 kv=13.2 kVA=40.0 wdg=2 tap=1.0 bus=x_1874.1.2.3 kv=0.38 kVA=40.0 %imag=0.5 %loadloss=1.5 %noloadloss=0.25 XHL=2.0 conns=[delta, wye, ] ppm_antifloat=0
New Transformer.idseta_1945 phases=3 wdg=1 bus=124.1.2.3 kv=13.2 kVA=200.0 wdg=2 tap=1.0 bus=x_1945.1.2.3 kv=0.38 kVA=200.0 %imag=0.5 %loadloss=1.5 %noloadloss=0.25 XHL=2.0 conns=[delta, wye, ] ppm_antifloat=0
New Transformer.idseta_1951 phases=3 wdg=1 bus=1169.1.2.3 kv=13.2 kVA=40.0 wdg=2 tap=1.0 bus=x_1951.1.2.3 kv=0.38 kVA=40.0 %imag=0.5 %loadloss=1.5 %noloadloss=0.25 XHL=2.0 conns=[delta, wye, ] ppm_antifloat=0
New Transformer.idseta_1973 phases=3 wdg=1 bus=408.1.2.3 kv=13.2 kVA=40.0 wdg=2 tap=1.0 bus=x_1973.1.2.3 kv=0.38 kVA=40.0 %imag=0.5 %loadloss=1.5 %noloadloss=0.25 XHL=2.0 conns=[delta, wye, ] ppm_antifloat=0
New Transformer.idseta_22 phases=3 wdg=1 bus=274.1.2.3 kv=13.2 kVA=100.0 wdg=2 tap=1.0 bus=x_22.1.2.3 kv=0.38 kVA=100.0 %imag=0.5 %loadloss=1.5 %noloadloss=0.25 XHL=2.0 conns=[delta, wye, ] ppm_antifloat=0
New Transformer.idseta_58 phases=3 wdg=1 bus=214.1.2.3 kv=13.2 kVA=160.0 wdg=2 tap=1.0 bus=x_58.1.2.3 kv=0.38 kVA=160.0 %imag=0.5 %loadloss=1.5 %noloadloss=0.25 XHL=2.0 conns=[delta, wye, ] ppm_antifloat=0
New Transformer.idseta_560 phases=3 wdg=1 bus=104.1.2.3 kv=13.2 kVA=100.0 wdg=2 tap=1.0 bus=x_560.1.2.3 kv=0.38 kVA=100.0 %imag=0.5 %loadloss=1.5 %noloadloss=0.25 XHL=2.0 conns=[delta, wye, ] ppm_antifloat=0
New Transformer.idseta_2109 phases=3 wdg=1 bus=985.1.2.3 kv=13.2 kVA=40.0 wdg=2 tap=1.0 bus=x_2109.1.2.3 kv=0.38 kVA=40.0 %imag=0.5 %loadloss=1.5 %noloadloss=0.25 XHL=2.0 conns=[delta, wye, ] ppm_antifloat=0
New Transformer.idseta_2228 phases=3 wdg=1 bus=1776.1.2.3 kv=13.2 kVA=5.0 wdg=2 tap=1.0 bus=x_2228.1.2.3 kv=0.38 kVA=5.0 %imag=0.5 %loadloss=1.5 %noloadloss=0.25 XHL=2.0 conns=[delta, wye, ] ppm_antifloat=0
New Transformer.idseta_2242 phases=3 wdg=1 bus=452.1.2.3 kv=13.2 kVA=50.0 wdg=2 tap=1.0 bus=x_2242.1.2.3 kv=0.38 kVA=50.0 %imag=0.5 %loadloss=1.5 %noloadloss=0.25 XHL=2.0 conns=[delta, wye, ] ppm_antifloat=0
New Transformer.idseta_2258 phases=3 wdg=1 bus=1164.1.2.3 kv=13.2 kVA=80.0 wdg=2 tap=1.0 bus=x_2258.1.2.3 kv=0.38 kVA=80.0 %imag=0.5 %loadloss=1.5 %noloadloss=0.25 XHL=2.0 conns=[delta, wye, ] ppm_antifloat=0
New Transformer.idseta_2792 phases=3 wdg=1 bus=688.1.2.3 kv=13.2 kVA=200.0 wdg=2 tap=1.0 bus=x_2792.1.2.3 kv=0.38 kVA=200.0 %imag=0.5 %loadloss=1.5 %noloadloss=0.25 XHL=2.0 conns=[delta, wye, ] ppm_antifloat=0
New Transformer.idseta_2794 phases=3 wdg=1 bus=1796.1.2.3 kv=13.2 kVA=63.0 wdg=2 tap=1.0 bus=x_2794.1.2.3 kv=0.38 kVA=63.0 %imag=0.5 %loadloss=1.5 %noloadloss=0.25 XHL=2.0 conns=[delta, wye, ] ppm_antifloat=0
New Transformer.idseta_2795 phases=3 wdg=1 bus=600.1.2.3 kv=13.2 kVA=40.0 wdg=2 tap=1.0 bus=x_2795.1.2.3 kv=0.38 kVA=40.0 %imag=0.5 %loadloss=1.5 %noloadloss=0.25 XHL=2.0 conns=[delta, wye, ] ppm_antifloat=0
...
